
---------- Begin Simulation Statistics ----------
final_tick                               834978880386                       # Number of ticks from beginning of simulation (restored from checkpoints and never reset)
host_inst_rate                                 120164                       # Simulator instruction rate (inst/s)
host_mem_usage                                 688700                       # Number of bytes of host memory used
host_op_rate                                   208768                       # Simulator op (including micro ops) rate (op/s)
host_seconds                                    84.44                       # Real time elapsed on the host
host_tick_rate                             9888490500                       # Simulator tick rate (ticks/s)
sim_freq                                 1000000000000                       # Frequency of simulated ticks
sim_insts                                    10146533                       # Number of instructions simulated
sim_ops                                      17628256                       # Number of ops (including micro ops) simulated
sim_seconds                                  0.834979                       # Number of seconds simulated
sim_ticks                                834978880386                       # Number of ticks simulated
system.cpu.Branches                            404244                       # Number of branches fetched
system.cpu.committedInsts                    10146533                       # Number of instructions committed
system.cpu.committedOps                      17628256                       # Number of ops (including micro ops) committed
system.cpu.dtb.rdAccesses                     2883053                       # TLB accesses on read requests
system.cpu.dtb.rdMisses                            89                       # TLB misses on read requests
system.cpu.dtb.wrAccesses                      293656                       # TLB accesses on write requests
system.cpu.dtb.wrMisses                            34                       # TLB misses on write requests
system.cpu.idle_fraction                     0.000000                       # Percentage of idle cycles
system.cpu.itb.rdAccesses                           0                       # TLB accesses on read requests
system.cpu.itb.rdMisses                             0                       # TLB misses on read requests
system.cpu.itb.wrAccesses                    15940832                       # TLB accesses on write requests
system.cpu.itb.wrMisses                           104                       # TLB misses on write requests
system.cpu.not_idle_fraction                 1.000000                       # Percentage of non-idle cycles
system.cpu.numCycles                       2840064219                       # number of cpu cycles simulated
system.cpu.numWorkItemsCompleted                    0                       # number of work items this cpu completed
system.cpu.numWorkItemsStarted                      0                       # number of work items this cpu started
system.cpu.num_busy_cycles               2840064218.996599                       # Number of busy cycles
system.cpu.num_cc_register_reads              1734364                       # number of times the CC registers were read
system.cpu.num_cc_register_writes             2232844                       # number of times the CC registers were written
system.cpu.num_conditional_control_insts       252751                       # number of instructions that are conditional controls
system.cpu.num_fp_alu_accesses               13414337                       # Number of float alu accesses
system.cpu.num_fp_insts                      13414337                       # number of float instructions
system.cpu.num_fp_register_reads             16869371                       # number of times the floating registers were read
system.cpu.num_fp_register_writes            13341901                       # number of times the floating registers were written
system.cpu.num_func_calls                      128456                       # number of times a function call or return occured
system.cpu.num_idle_cycles                   0.003401                       # Number of idle cycles
system.cpu.num_int_alu_accesses               6741707                       # Number of integer alu accesses
system.cpu.num_int_insts                      6741707                       # number of integer instructions
system.cpu.num_int_register_reads            15016921                       # number of times the integer registers were read
system.cpu.num_int_register_writes            3604381                       # number of times the integer registers were written
system.cpu.num_load_insts                     2883044                       # Number of load instructions
system.cpu.num_mem_refs                       3176700                       # number of memory refs
system.cpu.num_store_insts                     293656                       # Number of store instructions
system.cpu.num_vec_alu_accesses                     0                       # Number of vector alu accesses
system.cpu.num_vec_insts                            0                       # number of vector instructions
system.cpu.num_vec_register_reads                   0                       # number of times the vector registers were read
system.cpu.num_vec_register_writes                  0                       # number of times the vector registers were written
system.cpu.op_class::No_OpClass                  8598      0.05%      0.05% # Class of executed instruction
system.cpu.op_class::IntAlu                   4749107     26.94%     26.99% # Class of executed instruction
system.cpu.op_class::IntMult                    21223      0.12%     27.11% # Class of executed instruction
system.cpu.op_class::IntDiv                      1303      0.01%     27.12% # Class of executed instruction
system.cpu.op_class::FloatAdd                 4861774     27.58%     54.70% # Class of executed instruction
system.cpu.op_class::FloatCmp                       0      0.00%     54.70% # Class of executed instruction
system.cpu.op_class::FloatCvt                      96      0.00%     54.70% # Class of executed instruction
system.cpu.op_class::FloatMult                      0      0.00%     54.70% # Class of executed instruction
system.cpu.op_class::FloatMultAcc                   0      0.00%     54.70% # Class of executed instruction
system.cpu.op_class::FloatDiv                       0      0.00%     54.70% # Class of executed instruction
system.cpu.op_class::FloatMisc                      0      0.00%     54.70% # Class of executed instruction
system.cpu.op_class::FloatSqrt                      0      0.00%     54.70% # Class of executed instruction
system.cpu.op_class::SimdAdd                      886      0.01%     54.70% # Class of executed instruction
system.cpu.op_class::SimdAddAcc                     0      0.00%     54.70% # Class of executed instruction
system.cpu.op_class::SimdAlu                      923      0.01%     54.71% # Class of executed instruction
system.cpu.op_class::SimdCmp                        6      0.00%     54.71% # Class of executed instruction
system.cpu.op_class::SimdCvt                     1228      0.01%     54.71% # Class of executed instruction
system.cpu.op_class::SimdMisc                     938      0.01%     54.72% # Class of executed instruction
system.cpu.op_class::SimdMult                       0      0.00%     54.72% # Class of executed instruction
system.cpu.op_class::SimdMultAcc                    0      0.00%     54.72% # Class of executed instruction
system.cpu.op_class::SimdShift                    338      0.00%     54.72% # Class of executed instruction
system.cpu.op_class::SimdShiftAcc                   0      0.00%     54.72% # Class of executed instruction
system.cpu.op_class::SimdDiv                        0      0.00%     54.72% # Class of executed instruction
system.cpu.op_class::SimdSqrt                       0      0.00%     54.72% # Class of executed instruction
system.cpu.op_class::SimdFloatAdd             2391984     13.57%     68.29% # Class of executed instruction
system.cpu.op_class::SimdFloatAlu                   0      0.00%     68.29% # Class of executed instruction
system.cpu.op_class::SimdFloatCmp                   0      0.00%     68.29% # Class of executed instruction
system.cpu.op_class::SimdFloatCvt               42336      0.24%     68.53% # Class of executed instruction
system.cpu.op_class::SimdFloatDiv                   0      0.00%     68.53% # Class of executed instruction
system.cpu.op_class::SimdFloatMisc                  0      0.00%     68.53% # Class of executed instruction
system.cpu.op_class::SimdFloatMult            2370816     13.45%     81.98% # Class of executed instruction
system.cpu.op_class::SimdFloatMultAcc               0      0.00%     81.98% # Class of executed instruction
system.cpu.op_class::SimdFloatSqrt                  0      0.00%     81.98% # Class of executed instruction
system.cpu.op_class::SimdReduceAdd                  0      0.00%     81.98% # Class of executed instruction
system.cpu.op_class::SimdReduceAlu                  0      0.00%     81.98% # Class of executed instruction
system.cpu.op_class::SimdReduceCmp                  0      0.00%     81.98% # Class of executed instruction
system.cpu.op_class::SimdFloatReduceAdd             0      0.00%     81.98% # Class of executed instruction
system.cpu.op_class::SimdFloatReduceCmp             0      0.00%     81.98% # Class of executed instruction
system.cpu.op_class::SimdAes                        0      0.00%     81.98% # Class of executed instruction
system.cpu.op_class::SimdAesMix                     0      0.00%     81.98% # Class of executed instruction
system.cpu.op_class::SimdSha1Hash                   0      0.00%     81.98% # Class of executed instruction
system.cpu.op_class::SimdSha1Hash2                  0      0.00%     81.98% # Class of executed instruction
system.cpu.op_class::SimdSha256Hash                 0      0.00%     81.98% # Class of executed instruction
system.cpu.op_class::SimdSha256Hash2                0      0.00%     81.98% # Class of executed instruction
system.cpu.op_class::SimdShaSigma2                  0      0.00%     81.98% # Class of executed instruction
system.cpu.op_class::SimdShaSigma3                  0      0.00%     81.98% # Class of executed instruction
system.cpu.op_class::SimdPredAlu                    0      0.00%     81.98% # Class of executed instruction
system.cpu.op_class::MemRead                   418938      2.38%     84.36% # Class of executed instruction
system.cpu.op_class::MemWrite                  221941      1.26%     85.62% # Class of executed instruction
system.cpu.op_class::FloatMemRead             2464106     13.98%     99.59% # Class of executed instruction
system.cpu.op_class::FloatMemWrite              71715      0.41%    100.00% # Class of executed instruction
system.cpu.op_class::IprAccess                      0      0.00%    100.00% # Class of executed instruction
system.cpu.op_class::InstPrefetch                   0      0.00%    100.00% # Class of executed instruction
system.cpu.op_class::total                   17628256                       # Class of executed instruction
system.cpu.workload.numSyscalls                    32                       # Number of system calls
system.membus.snoop_filter.hit_multi_requests            0                       # Number of requests hitting in the snoop filter with multiple (>1) holders of the requested data.
system.membus.snoop_filter.hit_multi_snoops            0                       # Number of snoops hitting in the snoop filter with multiple (>1) holders of the requested data.
system.membus.snoop_filter.hit_single_requests            0                       # Number of requests hitting in the snoop filter with a single holder of the requested data.
system.membus.snoop_filter.hit_single_snoops            0                       # Number of snoops hitting in the snoop filter with a single holder of the requested data.
system.membus.snoop_filter.tot_requests             0                       # Total number of requests made to the snoop filter.
system.membus.snoop_filter.tot_snoops               0                       # Total number of snoops made to the snoop filter.
system.membus.pwrStateResidencyTicks::UNDEFINED 834978880386                       # Cumulative time (in ticks) in various power states
system.membus.trans_dist::ReadReq            18823885                       # Transaction distribution
system.membus.trans_dist::ReadResp           18823885                       # Transaction distribution
system.membus.trans_dist::WriteReq             293656                       # Transaction distribution
system.membus.trans_dist::WriteResp            293656                       # Transaction distribution
system.membus.pkt_count_system.cpu.icache_port::system.mem_ctrl.port     31881664                       # Packet count per connected master and slave (bytes)
system.membus.pkt_count_system.cpu.icache_port::total     31881664                       # Packet count per connected master and slave (bytes)
system.membus.pkt_count_system.cpu.dcache_port::system.mem_ctrl.port      6353418                       # Packet count per connected master and slave (bytes)
system.membus.pkt_count_system.cpu.dcache_port::total      6353418                       # Packet count per connected master and slave (bytes)
system.membus.pkt_count::total               38235082                       # Packet count per connected master and slave (bytes)
system.membus.pkt_size_system.cpu.icache_port::system.mem_ctrl.port    127526656                       # Cumulative packet size per connected master and slave (bytes)
system.membus.pkt_size_system.cpu.icache_port::total    127526656                       # Cumulative packet size per connected master and slave (bytes)
system.membus.pkt_size_system.cpu.dcache_port::system.mem_ctrl.port     14119716                       # Cumulative packet size per connected master and slave (bytes)
system.membus.pkt_size_system.cpu.dcache_port::total     14119716                       # Cumulative packet size per connected master and slave (bytes)
system.membus.pkt_size::total               141646372                       # Cumulative packet size per connected master and slave (bytes)
system.membus.snoops                                0                       # Total snoops (count)
system.membus.snoopTraffic                          0                       # Total snoop traffic (bytes)
system.membus.snoop_fanout::samples          19117541                       # Request fanout histogram
system.membus.snoop_fanout::mean                    0                       # Request fanout histogram
system.membus.snoop_fanout::stdev                   0                       # Request fanout histogram
system.membus.snoop_fanout::underflows              0      0.00%      0.00% # Request fanout histogram
system.membus.snoop_fanout::0                19117541    100.00%    100.00% # Request fanout histogram
system.membus.snoop_fanout::1                       0      0.00%    100.00% # Request fanout histogram
system.membus.snoop_fanout::overflows               0      0.00%    100.00% # Request fanout histogram
system.membus.snoop_fanout::min_value               0                       # Request fanout histogram
system.membus.snoop_fanout::max_value               0                       # Request fanout histogram
system.membus.snoop_fanout::total            19117541                       # Request fanout histogram
system.membus.reqLayer2.occupancy          5706891918                       # Layer occupancy (ticks)
system.membus.reqLayer2.utilization               0.7                       # Layer utilization (%)
system.membus.respLayer1.occupancy         2083718024                       # Layer occupancy (ticks)
system.membus.respLayer1.utilization              0.2                       # Layer utilization (%)
system.membus.respLayer0.occupancy        10373055640                       # Layer occupancy (ticks)
system.membus.respLayer0.utilization              1.2                       # Layer utilization (%)
system.mem_ctrl.pwrStateResidencyTicks::UNDEFINED 834978880386                       # Cumulative time (in ticks) in various power states
system.mem_ctrl.bytes_read::.cpu.inst       127526656                       # Number of bytes read from this memory
system.mem_ctrl.bytes_read::.cpu.data        12354972                       # Number of bytes read from this memory
system.mem_ctrl.bytes_read::total           139881628                       # Number of bytes read from this memory
system.mem_ctrl.bytes_inst_read::.cpu.inst    127526656                       # Number of instructions bytes read from this memory
system.mem_ctrl.bytes_inst_read::total      127526656                       # Number of instructions bytes read from this memory
system.mem_ctrl.bytes_written::.cpu.data      1764744                       # Number of bytes written to this memory
system.mem_ctrl.bytes_written::total          1764744                       # Number of bytes written to this memory
system.mem_ctrl.num_reads::.cpu.inst         15940832                       # Number of read requests responded to by this memory
system.mem_ctrl.num_reads::.cpu.data          2883053                       # Number of read requests responded to by this memory
system.mem_ctrl.num_reads::total             18823885                       # Number of read requests responded to by this memory
system.mem_ctrl.num_writes::.cpu.data          293656                       # Number of write requests responded to by this memory
system.mem_ctrl.num_writes::total              293656                       # Number of write requests responded to by this memory
system.mem_ctrl.bw_read::.cpu.inst          152730397                       # Total read bandwidth from this memory (bytes/s)
system.mem_ctrl.bw_read::.cpu.data           14796748                       # Total read bandwidth from this memory (bytes/s)
system.mem_ctrl.bw_read::total              167527145                       # Total read bandwidth from this memory (bytes/s)
system.mem_ctrl.bw_inst_read::.cpu.inst     152730397                       # Instruction read bandwidth from this memory (bytes/s)
system.mem_ctrl.bw_inst_read::total         152730397                       # Instruction read bandwidth from this memory (bytes/s)
system.mem_ctrl.bw_write::.cpu.data           2113519                       # Write bandwidth from this memory (bytes/s)
system.mem_ctrl.bw_write::total               2113519                       # Write bandwidth from this memory (bytes/s)
system.mem_ctrl.bw_total::.cpu.inst         152730397                       # Total bandwidth to/from this memory (bytes/s)
system.mem_ctrl.bw_total::.cpu.data          16910267                       # Total bandwidth to/from this memory (bytes/s)
system.mem_ctrl.bw_total::total             169640664                       # Total bandwidth to/from this memory (bytes/s)
system.mem_ctrl.avgPriority_.cpu.inst::samples  15940832.00                       # Average QoS priority value for accepted requests
system.mem_ctrl.avgPriority_.cpu.data::samples   2778008.00                       # Average QoS priority value for accepted requests
system.mem_ctrl.priorityMinLatency       0.000000018750                       # per QoS priority minimum request to response latency (s)
system.mem_ctrl.priorityMaxLatency       0.027177865840                       # per QoS priority maximum request to response latency (s)
system.mem_ctrl.numReadWriteTurnArounds           271                       # Number of turnarounds from READ to WRITE
system.mem_ctrl.numWriteReadTurnArounds           271                       # Number of turnarounds from WRITE to READ
system.mem_ctrl.numStayReadState             37936767                       # Number of times bus staying in READ state
system.mem_ctrl.numStayWriteState                4076                       # Number of times bus staying in WRITE state
system.mem_ctrl.readReqs                     18823885                       # Number of read requests accepted
system.mem_ctrl.writeReqs                      293656                       # Number of write requests accepted
system.mem_ctrl.readBursts                   18823885                       # Number of DRAM read bursts, including those serviced by the write queue
system.mem_ctrl.writeBursts                    293656                       # Number of DRAM write bursts, including those merged in the write queue
system.mem_ctrl.servicedByWrQ                  109419                       # Number of DRAM read bursts serviced by the write queue
system.mem_ctrl.mergedWrBursts                 289282                       # Number of DRAM write bursts merged with an existing one
system.mem_ctrl.neitherReadNorWriteReqs             0                       # Number of requests that are neither read nor write
system.mem_ctrl.perBankRdBursts::0           13956603                       # Per bank write bursts
system.mem_ctrl.perBankRdBursts::1             191800                       # Per bank write bursts
system.mem_ctrl.perBankRdBursts::2              46833                       # Per bank write bursts
system.mem_ctrl.perBankRdBursts::3              12427                       # Per bank write bursts
system.mem_ctrl.perBankRdBursts::4              26867                       # Per bank write bursts
system.mem_ctrl.perBankRdBursts::5             347523                       # Per bank write bursts
system.mem_ctrl.perBankRdBursts::6             345321                       # Per bank write bursts
system.mem_ctrl.perBankRdBursts::7             347070                       # Per bank write bursts
system.mem_ctrl.perBankRdBursts::8             346766                       # Per bank write bursts
system.mem_ctrl.perBankRdBursts::9             346945                       # Per bank write bursts
system.mem_ctrl.perBankRdBursts::10            502012                       # Per bank write bursts
system.mem_ctrl.perBankRdBursts::11            319897                       # Per bank write bursts
system.mem_ctrl.perBankRdBursts::12             50802                       # Per bank write bursts
system.mem_ctrl.perBankRdBursts::13              4634                       # Per bank write bursts
system.mem_ctrl.perBankRdBursts::14              3013                       # Per bank write bursts
system.mem_ctrl.perBankRdBursts::15           1865953                       # Per bank write bursts
system.mem_ctrl.perBankWrBursts::0                125                       # Per bank write bursts
system.mem_ctrl.perBankWrBursts::1                843                       # Per bank write bursts
system.mem_ctrl.perBankWrBursts::2                646                       # Per bank write bursts
system.mem_ctrl.perBankWrBursts::3                640                       # Per bank write bursts
system.mem_ctrl.perBankWrBursts::4                619                       # Per bank write bursts
system.mem_ctrl.perBankWrBursts::5                174                       # Per bank write bursts
system.mem_ctrl.perBankWrBursts::6                245                       # Per bank write bursts
system.mem_ctrl.perBankWrBursts::7                241                       # Per bank write bursts
system.mem_ctrl.perBankWrBursts::8                220                       # Per bank write bursts
system.mem_ctrl.perBankWrBursts::9                130                       # Per bank write bursts
system.mem_ctrl.perBankWrBursts::10               186                       # Per bank write bursts
system.mem_ctrl.perBankWrBursts::11               125                       # Per bank write bursts
system.mem_ctrl.perBankWrBursts::12               104                       # Per bank write bursts
system.mem_ctrl.perBankWrBursts::13                 0                       # Per bank write bursts
system.mem_ctrl.perBankWrBursts::14                 0                       # Per bank write bursts
system.mem_ctrl.perBankWrBursts::15                45                       # Per bank write bursts
system.mem_ctrl.avgRdQLen                        1.00                       # Average read queue length when enqueuing
system.mem_ctrl.avgWrQLen                       25.57                       # Average write queue length when enqueuing
system.mem_ctrl.totQLat                   48169046148                       # Total ticks spent queuing
system.mem_ctrl.totBusLat                 93572330000                       # Total ticks spent in databus transfers
system.mem_ctrl.totMemAccLat             399065283648                       # Total ticks spent from burst creation until serviced by the DRAM
system.mem_ctrl.avgQLat                       2573.89                       # Average queueing delay per DRAM burst
system.mem_ctrl.avgBusLat                     5000.00                       # Average bus latency per DRAM burst
system.mem_ctrl.avgMemAccLat                 21323.89                       # Average memory access latency per DRAM burst
system.mem_ctrl.numRdRetry                          0                       # Number of times read queue was full causing retry
system.mem_ctrl.numWrRetry                          0                       # Number of times write queue was full causing retry
system.mem_ctrl.readRowHits                  17322702                       # Number of row buffer hits during reads
system.mem_ctrl.writeRowHits                     3980                       # Number of row buffer hits during writes
system.mem_ctrl.readRowHitRate                  92.56                       # Row buffer hit rate for reads
system.mem_ctrl.writeRowHitRate                 90.99                       # Row buffer hit rate for writes
system.mem_ctrl.readPktSize::0                   7922                       # Read request sizes (log2)
system.mem_ctrl.readPktSize::1                 172160                       # Read request sizes (log2)
system.mem_ctrl.readPktSize::2                2405256                       # Read request sizes (log2)
system.mem_ctrl.readPktSize::3               16238547                       # Read request sizes (log2)
system.mem_ctrl.readPktSize::4                      0                       # Read request sizes (log2)
system.mem_ctrl.readPktSize::5                      0                       # Read request sizes (log2)
system.mem_ctrl.readPktSize::6                      0                       # Read request sizes (log2)
system.mem_ctrl.writePktSize::0                   132                       # Write request sizes (log2)
system.mem_ctrl.writePktSize::1                 63618                       # Write request sizes (log2)
system.mem_ctrl.writePktSize::2                 50468                       # Write request sizes (log2)
system.mem_ctrl.writePktSize::3                179438                       # Write request sizes (log2)
system.mem_ctrl.writePktSize::4                     0                       # Write request sizes (log2)
system.mem_ctrl.writePktSize::5                     0                       # Write request sizes (log2)
system.mem_ctrl.writePktSize::6                     0                       # Write request sizes (log2)
system.mem_ctrl.rdQLenPdf::0                 18714457                       # What read queue length does an incoming req see
system.mem_ctrl.rdQLenPdf::1                        9                       # What read queue length does an incoming req see
system.mem_ctrl.rdQLenPdf::2                        0                       # What read queue length does an incoming req see
system.mem_ctrl.rdQLenPdf::3                        0                       # What read queue length does an incoming req see
system.mem_ctrl.rdQLenPdf::4                        0                       # What read queue length does an incoming req see
system.mem_ctrl.rdQLenPdf::5                        0                       # What read queue length does an incoming req see
system.mem_ctrl.rdQLenPdf::6                        0                       # What read queue length does an incoming req see
system.mem_ctrl.rdQLenPdf::7                        0                       # What read queue length does an incoming req see
system.mem_ctrl.rdQLenPdf::8                        0                       # What read queue length does an incoming req see
system.mem_ctrl.rdQLenPdf::9                        0                       # What read queue length does an incoming req see
system.mem_ctrl.rdQLenPdf::10                       0                       # What read queue length does an incoming req see
system.mem_ctrl.rdQLenPdf::11                       0                       # What read queue length does an incoming req see
system.mem_ctrl.rdQLenPdf::12                       0                       # What read queue length does an incoming req see
system.mem_ctrl.rdQLenPdf::13                       0                       # What read queue length does an incoming req see
system.mem_ctrl.rdQLenPdf::14                       0                       # What read queue length does an incoming req see
system.mem_ctrl.rdQLenPdf::15                       0                       # What read queue length does an incoming req see
system.mem_ctrl.rdQLenPdf::16                       0                       # What read queue length does an incoming req see
system.mem_ctrl.rdQLenPdf::17                       0                       # What read queue length does an incoming req see
system.mem_ctrl.rdQLenPdf::18                       0                       # What read queue length does an incoming req see
system.mem_ctrl.rdQLenPdf::19                       0                       # What read queue length does an incoming req see
system.mem_ctrl.rdQLenPdf::20                       0                       # What read queue length does an incoming req see
system.mem_ctrl.rdQLenPdf::21                       0                       # What read queue length does an incoming req see
system.mem_ctrl.rdQLenPdf::22                       0                       # What read queue length does an incoming req see
system.mem_ctrl.rdQLenPdf::23                       0                       # What read queue length does an incoming req see
system.mem_ctrl.rdQLenPdf::24                       0                       # What read queue length does an incoming req see
system.mem_ctrl.rdQLenPdf::25                       0                       # What read queue length does an incoming req see
system.mem_ctrl.rdQLenPdf::26                       0                       # What read queue length does an incoming req see
system.mem_ctrl.rdQLenPdf::27                       0                       # What read queue length does an incoming req see
system.mem_ctrl.rdQLenPdf::28                       0                       # What read queue length does an incoming req see
system.mem_ctrl.rdQLenPdf::29                       0                       # What read queue length does an incoming req see
system.mem_ctrl.rdQLenPdf::30                       0                       # What read queue length does an incoming req see
system.mem_ctrl.rdQLenPdf::31                       0                       # What read queue length does an incoming req see
system.mem_ctrl.wrQLenPdf::0                        1                       # What write queue length does an incoming req see
system.mem_ctrl.wrQLenPdf::1                        1                       # What write queue length does an incoming req see
system.mem_ctrl.wrQLenPdf::2                        1                       # What write queue length does an incoming req see
system.mem_ctrl.wrQLenPdf::3                        1                       # What write queue length does an incoming req see
system.mem_ctrl.wrQLenPdf::4                        1                       # What write queue length does an incoming req see
system.mem_ctrl.wrQLenPdf::5                        1                       # What write queue length does an incoming req see
system.mem_ctrl.wrQLenPdf::6                        1                       # What write queue length does an incoming req see
system.mem_ctrl.wrQLenPdf::7                        1                       # What write queue length does an incoming req see
system.mem_ctrl.wrQLenPdf::8                        1                       # What write queue length does an incoming req see
system.mem_ctrl.wrQLenPdf::9                        1                       # What write queue length does an incoming req see
system.mem_ctrl.wrQLenPdf::10                       1                       # What write queue length does an incoming req see
system.mem_ctrl.wrQLenPdf::11                       1                       # What write queue length does an incoming req see
system.mem_ctrl.wrQLenPdf::12                       1                       # What write queue length does an incoming req see
system.mem_ctrl.wrQLenPdf::13                       1                       # What write queue length does an incoming req see
system.mem_ctrl.wrQLenPdf::14                       1                       # What write queue length does an incoming req see
system.mem_ctrl.wrQLenPdf::15                       3                       # What write queue length does an incoming req see
system.mem_ctrl.wrQLenPdf::16                       6                       # What write queue length does an incoming req see
system.mem_ctrl.wrQLenPdf::17                     272                       # What write queue length does an incoming req see
system.mem_ctrl.wrQLenPdf::18                     272                       # What write queue length does an incoming req see
system.mem_ctrl.wrQLenPdf::19                     272                       # What write queue length does an incoming req see
system.mem_ctrl.wrQLenPdf::20                     272                       # What write queue length does an incoming req see
system.mem_ctrl.wrQLenPdf::21                     272                       # What write queue length does an incoming req see
system.mem_ctrl.wrQLenPdf::22                     272                       # What write queue length does an incoming req see
system.mem_ctrl.wrQLenPdf::23                     272                       # What write queue length does an incoming req see
system.mem_ctrl.wrQLenPdf::24                     272                       # What write queue length does an incoming req see
system.mem_ctrl.wrQLenPdf::25                     272                       # What write queue length does an incoming req see
system.mem_ctrl.wrQLenPdf::26                     272                       # What write queue length does an incoming req see
system.mem_ctrl.wrQLenPdf::27                     272                       # What write queue length does an incoming req see
system.mem_ctrl.wrQLenPdf::28                     272                       # What write queue length does an incoming req see
system.mem_ctrl.wrQLenPdf::29                     272                       # What write queue length does an incoming req see
system.mem_ctrl.wrQLenPdf::30                     272                       # What write queue length does an incoming req see
system.mem_ctrl.wrQLenPdf::31                     271                       # What write queue length does an incoming req see
system.mem_ctrl.wrQLenPdf::32                     271                       # What write queue length does an incoming req see
system.mem_ctrl.wrQLenPdf::33                       0                       # What write queue length does an incoming req see
system.mem_ctrl.wrQLenPdf::34                       0                       # What write queue length does an incoming req see
system.mem_ctrl.wrQLenPdf::35                       0                       # What write queue length does an incoming req see
system.mem_ctrl.wrQLenPdf::36                       0                       # What write queue length does an incoming req see
system.mem_ctrl.wrQLenPdf::37                       0                       # What write queue length does an incoming req see
system.mem_ctrl.wrQLenPdf::38                       0                       # What write queue length does an incoming req see
system.mem_ctrl.wrQLenPdf::39                       0                       # What write queue length does an incoming req see
system.mem_ctrl.wrQLenPdf::40                       0                       # What write queue length does an incoming req see
system.mem_ctrl.wrQLenPdf::41                       0                       # What write queue length does an incoming req see
system.mem_ctrl.wrQLenPdf::42                       0                       # What write queue length does an incoming req see
system.mem_ctrl.wrQLenPdf::43                       0                       # What write queue length does an incoming req see
system.mem_ctrl.wrQLenPdf::44                       0                       # What write queue length does an incoming req see
system.mem_ctrl.wrQLenPdf::45                       0                       # What write queue length does an incoming req see
system.mem_ctrl.wrQLenPdf::46                       0                       # What write queue length does an incoming req see
system.mem_ctrl.wrQLenPdf::47                       0                       # What write queue length does an incoming req see
system.mem_ctrl.wrQLenPdf::48                       0                       # What write queue length does an incoming req see
system.mem_ctrl.wrQLenPdf::49                       0                       # What write queue length does an incoming req see
system.mem_ctrl.wrQLenPdf::50                       0                       # What write queue length does an incoming req see
system.mem_ctrl.wrQLenPdf::51                       0                       # What write queue length does an incoming req see
system.mem_ctrl.wrQLenPdf::52                       0                       # What write queue length does an incoming req see
system.mem_ctrl.wrQLenPdf::53                       0                       # What write queue length does an incoming req see
system.mem_ctrl.wrQLenPdf::54                       0                       # What write queue length does an incoming req see
system.mem_ctrl.wrQLenPdf::55                       0                       # What write queue length does an incoming req see
system.mem_ctrl.wrQLenPdf::56                       0                       # What write queue length does an incoming req see
system.mem_ctrl.wrQLenPdf::57                       0                       # What write queue length does an incoming req see
system.mem_ctrl.wrQLenPdf::58                       0                       # What write queue length does an incoming req see
system.mem_ctrl.wrQLenPdf::59                       0                       # What write queue length does an incoming req see
system.mem_ctrl.wrQLenPdf::60                       0                       # What write queue length does an incoming req see
system.mem_ctrl.wrQLenPdf::61                       0                       # What write queue length does an incoming req see
system.mem_ctrl.wrQLenPdf::62                       0                       # What write queue length does an incoming req see
system.mem_ctrl.wrQLenPdf::63                       0                       # What write queue length does an incoming req see
system.mem_ctrl.bytesPerActivate::samples      1392119                       # Bytes accessed per row activation
system.mem_ctrl.bytesPerActivate::mean     860.559673                       # Bytes accessed per row activation
system.mem_ctrl.bytesPerActivate::gmean    755.477632                       # Bytes accessed per row activation
system.mem_ctrl.bytesPerActivate::stdev    291.175952                       # Bytes accessed per row activation
system.mem_ctrl.bytesPerActivate::0-127         42512      3.05%      3.05% # Bytes accessed per row activation
system.mem_ctrl.bytesPerActivate::128-255        54573      3.92%      6.97% # Bytes accessed per row activation
system.mem_ctrl.bytesPerActivate::256-383        62277      4.47%     11.45% # Bytes accessed per row activation
system.mem_ctrl.bytesPerActivate::384-511        60628      4.36%     15.80% # Bytes accessed per row activation
system.mem_ctrl.bytesPerActivate::512-639        40195      2.89%     18.69% # Bytes accessed per row activation
system.mem_ctrl.bytesPerActivate::640-767        30935      2.22%     20.91% # Bytes accessed per row activation
system.mem_ctrl.bytesPerActivate::768-895        89257      6.41%     27.32% # Bytes accessed per row activation
system.mem_ctrl.bytesPerActivate::896-1023        60146      4.32%     31.64% # Bytes accessed per row activation
system.mem_ctrl.bytesPerActivate::1024-1151       951596     68.36%    100.00% # Bytes accessed per row activation
system.mem_ctrl.bytesPerActivate::total       1392119                       # Bytes accessed per row activation
system.mem_ctrl.rdPerTurnAround::samples          271                       # Reads before turning the bus around for writes
system.mem_ctrl.rdPerTurnAround::mean    69052.269373                       # Reads before turning the bus around for writes
system.mem_ctrl.rdPerTurnAround::stdev   63956.147942                       # Reads before turning the bus around for writes
system.mem_ctrl.rdPerTurnAround::0-8191            53     19.56%     19.56% # Reads before turning the bus around for writes
system.mem_ctrl.rdPerTurnAround::8192-16383            1      0.37%     19.93% # Reads before turning the bus around for writes
system.mem_ctrl.rdPerTurnAround::16384-24575           79     29.15%     49.08% # Reads before turning the bus around for writes
system.mem_ctrl.rdPerTurnAround::24576-32767           24      8.86%     57.93% # Reads before turning the bus around for writes
system.mem_ctrl.rdPerTurnAround::57344-65535            2      0.74%     58.67% # Reads before turning the bus around for writes
system.mem_ctrl.rdPerTurnAround::65536-73727            1      0.37%     59.04% # Reads before turning the bus around for writes
system.mem_ctrl.rdPerTurnAround::81920-90111            1      0.37%     59.41% # Reads before turning the bus around for writes
system.mem_ctrl.rdPerTurnAround::90112-98303            2      0.74%     60.15% # Reads before turning the bus around for writes
system.mem_ctrl.rdPerTurnAround::131072-139263            7      2.58%     62.73% # Reads before turning the bus around for writes
system.mem_ctrl.rdPerTurnAround::139264-147455           61     22.51%     85.24% # Reads before turning the bus around for writes
system.mem_ctrl.rdPerTurnAround::147456-155647           40     14.76%    100.00% # Reads before turning the bus around for writes
system.mem_ctrl.rdPerTurnAround::total            271                       # Reads before turning the bus around for writes
system.mem_ctrl.wrPerTurnAround::samples          271                       # Writes before turning the bus around for reads
system.mem_ctrl.wrPerTurnAround::mean       16.025830                       # Writes before turning the bus around for reads
system.mem_ctrl.wrPerTurnAround::gmean      16.024277                       # Writes before turning the bus around for reads
system.mem_ctrl.wrPerTurnAround::stdev       0.234277                       # Writes before turning the bus around for reads
system.mem_ctrl.wrPerTurnAround::16               267     98.52%     98.52% # Writes before turning the bus around for reads
system.mem_ctrl.wrPerTurnAround::17                 2      0.74%     99.26% # Writes before turning the bus around for reads
system.mem_ctrl.wrPerTurnAround::18                 1      0.37%     99.63% # Writes before turning the bus around for reads
system.mem_ctrl.wrPerTurnAround::19                 1      0.37%    100.00% # Writes before turning the bus around for reads
system.mem_ctrl.wrPerTurnAround::total            271                       # Writes before turning the bus around for reads
system.mem_ctrl.bytesReadDRAM              1197725824                       # Total number of bytes read from DRAM
system.mem_ctrl.bytesReadWrQ                  7002816                       # Total number of bytes read from write queue
system.mem_ctrl.bytesWritten                   277952                       # Total number of bytes written to DRAM
system.mem_ctrl.bytesReadSys                139881628                       # Total read bytes from the system interface side
system.mem_ctrl.bytesWrittenSys               1764744                       # Total written bytes from the system interface side
system.mem_ctrl.avgRdBW                       1434.44                       # Average DRAM read bandwidth in MiByte/s
system.mem_ctrl.avgWrBW                          0.33                       # Average achieved write bandwidth in MiByte/s
system.mem_ctrl.avgRdBWSys                     167.53                       # Average system read bandwidth in MiByte/s
system.mem_ctrl.avgWrBWSys                       2.11                       # Average system write bandwidth in MiByte/s
system.mem_ctrl.peakBW                       12800.00                       # Theoretical peak bandwidth in MiByte/s
system.mem_ctrl.busUtil                         11.21                       # Data bus utilization in percentage
system.mem_ctrl.busUtilRead                     11.21                       # Data bus utilization in percentage for reads
system.mem_ctrl.busUtilWrite                     0.00                       # Data bus utilization in percentage for writes
system.mem_ctrl.totGap                   834978769254                       # Total gap between requests
system.mem_ctrl.avgGap                       43676.05                       # Average gap between requests
system.mem_ctrl.masterReadBytes::.cpu.inst    127526656                       # Per-master bytes read from memory
system.mem_ctrl.masterReadBytes::.cpu.data     11733526                       # Per-master bytes read from memory
system.mem_ctrl.masterWriteBytes::.cpu.data        21538                       # Per-master bytes write to memory
system.mem_ctrl.masterReadRate::.cpu.inst 152730397.134171903133                       # Per-master bytes read from memory rate (Bytes/sec)
system.mem_ctrl.masterReadRate::.cpu.data 14052482.374854490161                       # Per-master bytes read from memory rate (Bytes/sec)
system.mem_ctrl.masterWriteRate::.cpu.data 25794.664399227990                       # Per-master bytes write to memory rate (Bytes/sec)
system.mem_ctrl.masterReadAccesses::.cpu.inst     15940832                       # Per-master read serviced memory accesses
system.mem_ctrl.masterReadAccesses::.cpu.data      2883053                       # Per-master read serviced memory accesses
system.mem_ctrl.masterWriteAccesses::.cpu.data       293656                       # Per-master write serviced memory accesses
system.mem_ctrl.masterReadTotalLat::.cpu.inst 338145548446                       # Per-master read total memory access latency
system.mem_ctrl.masterReadTotalLat::.cpu.data  60919735202                       # Per-master read total memory access latency
system.mem_ctrl.masterWriteTotalLat::.cpu.data 20648920244144                       # Per-master write total memory access latency
system.mem_ctrl.masterReadAvgLat::.cpu.inst     21212.54                       # Per-master read average memory access latency
system.mem_ctrl.masterReadAvgLat::.cpu.data     21130.29                       # Per-master read average memory access latency
system.mem_ctrl.masterWriteAvgLat::.cpu.data  70316697.92                       # Per-master write average memory access latency
system.mem_ctrl.pageHitRate                     92.56                       # Row buffer hit rate, read and write combined
system.mem_ctrl.rank1.actEnergy            2023047600                       # Energy for activate commands per rank (pJ)
system.mem_ctrl.rank1.preEnergy            1075256325                       # Energy for precharge commands per rank (pJ)
system.mem_ctrl.rank1.readEnergy          24561757080                       # Energy for read commands per rank (pJ)
system.mem_ctrl.rank1.writeEnergy             4228200                       # Energy for write commands per rank (pJ)
system.mem_ctrl.rank1.refreshEnergy      65912149680.000008                       # Energy for refresh commands per rank (pJ)
system.mem_ctrl.rank1.actBackEnergy      357152287200                       # Energy for active background per rank (pJ)
system.mem_ctrl.rank1.preBackEnergy       19872069600                       # Energy for precharge background per rank (pJ)
system.mem_ctrl.rank1.actPowerDownEnergy            0                       # Energy for active power-down per rank (pJ)
system.mem_ctrl.rank1.prePowerDownEnergy            0                       # Energy for precharge power-down per rank (pJ)
system.mem_ctrl.rank1.selfRefreshEnergy             0                       # Energy for self refresh per rank (pJ)
system.mem_ctrl.rank1.totalEnergy        470600795685                       # Total energy per rank (pJ)
system.mem_ctrl.rank1.averagePower         563.608023                       # Core power per rank (mW)
system.mem_ctrl.rank1.totalIdleTime                 0                       # Total Idle time Per DRAM Rank
system.mem_ctrl.rank1.memoryStateTime::IDLE  48698520570                       # Time in different power states
system.mem_ctrl.rank1.memoryStateTime::REF  27881620000                       # Time in different power states
system.mem_ctrl.rank1.memoryStateTime::SREF            0                       # Time in different power states
system.mem_ctrl.rank1.memoryStateTime::PRE_PDN            0                       # Time in different power states
system.mem_ctrl.rank1.memoryStateTime::ACT 758398739816                       # Time in different power states
system.mem_ctrl.rank1.memoryStateTime::ACT_PDN            0                       # Time in different power states
system.mem_ctrl.rank0.actEnergy            7916739180                       # Energy for activate commands per rank (pJ)
system.mem_ctrl.rank0.preEnergy            4207835280                       # Energy for precharge commands per rank (pJ)
system.mem_ctrl.rank0.readEnergy         109059530160                       # Energy for read commands per rank (pJ)
system.mem_ctrl.rank0.writeEnergy            18442260                       # Energy for write commands per rank (pJ)
system.mem_ctrl.rank0.refreshEnergy      65912149680.000008                       # Energy for refresh commands per rank (pJ)
system.mem_ctrl.rank0.actBackEnergy      368401591170                       # Energy for active background per rank (pJ)
system.mem_ctrl.rank0.preBackEnergy       10398971520                       # Energy for precharge background per rank (pJ)
system.mem_ctrl.rank0.actPowerDownEnergy            0                       # Energy for active power-down per rank (pJ)
system.mem_ctrl.rank0.prePowerDownEnergy            0                       # Energy for precharge power-down per rank (pJ)
system.mem_ctrl.rank0.selfRefreshEnergy             0                       # Energy for self refresh per rank (pJ)
system.mem_ctrl.rank0.totalEnergy        565915259250                       # Total energy per rank (pJ)
system.mem_ctrl.rank0.averagePower         677.759968                       # Core power per rank (mW)
system.mem_ctrl.rank0.totalIdleTime                 0                       # Total Idle time Per DRAM Rank
system.mem_ctrl.rank0.memoryStateTime::IDLE  22644223842                       # Time in different power states
system.mem_ctrl.rank0.memoryStateTime::REF  27881620000                       # Time in different power states
system.mem_ctrl.rank0.memoryStateTime::SREF            0                       # Time in different power states
system.mem_ctrl.rank0.memoryStateTime::PRE_PDN            0                       # Time in different power states
system.mem_ctrl.rank0.memoryStateTime::ACT 784453036544                       # Time in different power states
system.mem_ctrl.rank0.memoryStateTime::ACT_PDN            0                       # Time in different power states
system.clk_domain.clock                           294                       # Clock period in ticks
system.clk_domain.voltage_domain.voltage            1                       # Voltage in Volts
system.cpu.numPwrStateTransitions                   1                       # Number of power state transitions
system.cpu.pwrStateResidencyTicks::ON    834978880386                       # Cumulative time (in ticks) in various power states
system.cpu.dtb.walker.pwrStateResidencyTicks::UNDEFINED 834978880386                       # Cumulative time (in ticks) in various power states
system.cpu.interrupts.clk_domain.clock           4704                       # Clock period in ticks
system.cpu.itb.walker.pwrStateResidencyTicks::UNDEFINED 834978880386                       # Cumulative time (in ticks) in various power states

---------- End Simulation Statistics   ----------
