
---------- Begin Simulation Statistics ----------
final_tick                               362444972820                       # Number of ticks from beginning of simulation (restored from checkpoints and never reset)
host_inst_rate                                 156560                       # Simulator instruction rate (inst/s)
host_mem_usage                                 670696                       # Number of bytes of host memory used
host_op_rate                                   247957                       # Simulator op (including micro ops) rate (op/s)
host_seconds                                    38.36                       # Real time elapsed on the host
host_tick_rate                             9447763078                       # Simulator tick rate (ticks/s)
sim_freq                                 1000000000000                       # Frequency of simulated ticks
sim_insts                                     6006077                       # Number of instructions simulated
sim_ops                                       9512368                       # Number of ops (including micro ops) simulated
sim_seconds                                  0.362445                       # Number of seconds simulated
sim_ticks                                362444972820                       # Number of ticks simulated
system.cpu.Branches                            501216                       # Number of branches fetched
system.cpu.committedInsts                     6006077                       # Number of instructions committed
system.cpu.committedOps                       9512368                       # Number of ops (including micro ops) committed
system.cpu.dtb.rdAccesses                      501097                       # TLB accesses on read requests
system.cpu.dtb.rdMisses                        438883                       # TLB misses on read requests
system.cpu.dtb.wrAccesses                        1279                       # TLB accesses on write requests
system.cpu.dtb.wrMisses                             7                       # TLB misses on write requests
system.cpu.idle_fraction                     0.000000                       # Percentage of idle cycles
system.cpu.itb.rdAccesses                           0                       # TLB accesses on read requests
system.cpu.itb.rdMisses                             0                       # TLB misses on read requests
system.cpu.itb.wrAccesses                     7508179                       # TLB accesses on write requests
system.cpu.itb.wrMisses                            34                       # TLB misses on write requests
system.cpu.not_idle_fraction                 1.000000                       # Percentage of non-idle cycles
system.cpu.numCycles                       1232806030                       # number of cpu cycles simulated
system.cpu.numWorkItemsCompleted                    0                       # number of work items this cpu completed
system.cpu.numWorkItemsStarted                      0                       # number of work items this cpu started
system.cpu.num_busy_cycles               1232806029.996599                       # Number of busy cycles
system.cpu.num_cc_register_reads              5006346                       # number of times the CC registers were read
system.cpu.num_cc_register_writes             9003320                       # number of times the CC registers were written
system.cpu.num_conditional_control_insts       500864                       # number of instructions that are conditional controls
system.cpu.num_fp_alu_accesses                   1951                       # Number of float alu accesses
system.cpu.num_fp_insts                          1951                       # number of float instructions
system.cpu.num_fp_register_reads                 3771                       # number of times the floating registers were read
system.cpu.num_fp_register_writes                1484                       # number of times the floating registers were written
system.cpu.num_func_calls                         244                       # number of times a function call or return occured
system.cpu.num_idle_cycles                   0.003401                       # Number of idle cycles
system.cpu.num_int_alu_accesses               9510837                       # Number of integer alu accesses
system.cpu.num_int_insts                      9510837                       # number of integer instructions
system.cpu.num_int_register_reads            15521273                       # number of times the integer registers were read
system.cpu.num_int_register_writes            9008398                       # number of times the integer registers were written
system.cpu.num_load_insts                      501094                       # Number of load instructions
system.cpu.num_mem_refs                        502372                       # number of memory refs
system.cpu.num_store_insts                       1278                       # Number of store instructions
system.cpu.num_vec_alu_accesses                     0                       # Number of vector alu accesses
system.cpu.num_vec_insts                            0                       # number of vector instructions
system.cpu.num_vec_register_reads                   0                       # number of times the vector registers were read
system.cpu.num_vec_register_writes                  0                       # number of times the vector registers were written
system.cpu.op_class::No_OpClass                   101      0.00%      0.00% # Class of executed instruction
system.cpu.op_class::IntAlu                   9008917     94.71%     94.71% # Class of executed instruction
system.cpu.op_class::IntMult                        4      0.00%     94.71% # Class of executed instruction
system.cpu.op_class::IntDiv                        14      0.00%     94.71% # Class of executed instruction
system.cpu.op_class::FloatAdd                      10      0.00%     94.71% # Class of executed instruction
system.cpu.op_class::FloatCmp                       0      0.00%     94.71% # Class of executed instruction
system.cpu.op_class::FloatCvt                       0      0.00%     94.71% # Class of executed instruction
system.cpu.op_class::FloatMult                      0      0.00%     94.71% # Class of executed instruction
system.cpu.op_class::FloatMultAcc                   0      0.00%     94.71% # Class of executed instruction
system.cpu.op_class::FloatDiv                       0      0.00%     94.71% # Class of executed instruction
system.cpu.op_class::FloatMisc                      0      0.00%     94.71% # Class of executed instruction
system.cpu.op_class::FloatSqrt                      0      0.00%     94.71% # Class of executed instruction
system.cpu.op_class::SimdAdd                      374      0.00%     94.71% # Class of executed instruction
system.cpu.op_class::SimdAddAcc                     0      0.00%     94.71% # Class of executed instruction
system.cpu.op_class::SimdAlu                       68      0.00%     94.71% # Class of executed instruction
system.cpu.op_class::SimdCmp                        0      0.00%     94.71% # Class of executed instruction
system.cpu.op_class::SimdCvt                      108      0.00%     94.71% # Class of executed instruction
system.cpu.op_class::SimdMisc                     214      0.00%     94.72% # Class of executed instruction
system.cpu.op_class::SimdMult                       0      0.00%     94.72% # Class of executed instruction
system.cpu.op_class::SimdMultAcc                    0      0.00%     94.72% # Class of executed instruction
system.cpu.op_class::SimdShift                    186      0.00%     94.72% # Class of executed instruction
system.cpu.op_class::SimdShiftAcc                   0      0.00%     94.72% # Class of executed instruction
system.cpu.op_class::SimdDiv                        0      0.00%     94.72% # Class of executed instruction
system.cpu.op_class::SimdSqrt                       0      0.00%     94.72% # Class of executed instruction
system.cpu.op_class::SimdFloatAdd                   0      0.00%     94.72% # Class of executed instruction
system.cpu.op_class::SimdFloatAlu                   0      0.00%     94.72% # Class of executed instruction
system.cpu.op_class::SimdFloatCmp                   0      0.00%     94.72% # Class of executed instruction
system.cpu.op_class::SimdFloatCvt                   0      0.00%     94.72% # Class of executed instruction
system.cpu.op_class::SimdFloatDiv                   0      0.00%     94.72% # Class of executed instruction
system.cpu.op_class::SimdFloatMisc                  0      0.00%     94.72% # Class of executed instruction
system.cpu.op_class::SimdFloatMult                  0      0.00%     94.72% # Class of executed instruction
system.cpu.op_class::SimdFloatMultAcc               0      0.00%     94.72% # Class of executed instruction
system.cpu.op_class::SimdFloatSqrt                  0      0.00%     94.72% # Class of executed instruction
system.cpu.op_class::SimdReduceAdd                  0      0.00%     94.72% # Class of executed instruction
system.cpu.op_class::SimdReduceAlu                  0      0.00%     94.72% # Class of executed instruction
system.cpu.op_class::SimdReduceCmp                  0      0.00%     94.72% # Class of executed instruction
system.cpu.op_class::SimdFloatReduceAdd             0      0.00%     94.72% # Class of executed instruction
system.cpu.op_class::SimdFloatReduceCmp             0      0.00%     94.72% # Class of executed instruction
system.cpu.op_class::SimdAes                        0      0.00%     94.72% # Class of executed instruction
system.cpu.op_class::SimdAesMix                     0      0.00%     94.72% # Class of executed instruction
system.cpu.op_class::SimdSha1Hash                   0      0.00%     94.72% # Class of executed instruction
system.cpu.op_class::SimdSha1Hash2                  0      0.00%     94.72% # Class of executed instruction
system.cpu.op_class::SimdSha256Hash                 0      0.00%     94.72% # Class of executed instruction
system.cpu.op_class::SimdSha256Hash2                0      0.00%     94.72% # Class of executed instruction
system.cpu.op_class::SimdShaSigma2                  0      0.00%     94.72% # Class of executed instruction
system.cpu.op_class::SimdShaSigma3                  0      0.00%     94.72% # Class of executed instruction
system.cpu.op_class::SimdPredAlu                    0      0.00%     94.72% # Class of executed instruction
system.cpu.op_class::MemRead                   501034      5.27%     99.99% # Class of executed instruction
system.cpu.op_class::MemWrite                     859      0.01%     99.99% # Class of executed instruction
system.cpu.op_class::FloatMemRead                  60      0.00%    100.00% # Class of executed instruction
system.cpu.op_class::FloatMemWrite                419      0.00%    100.00% # Class of executed instruction
system.cpu.op_class::IprAccess                      0      0.00%    100.00% # Class of executed instruction
system.cpu.op_class::InstPrefetch                   0      0.00%    100.00% # Class of executed instruction
system.cpu.op_class::total                    9512368                       # Class of executed instruction
system.cpu.workload.numSyscalls                     9                       # Number of system calls
system.membus.snoop_filter.hit_multi_requests            0                       # Number of requests hitting in the snoop filter with multiple (>1) holders of the requested data.
system.membus.snoop_filter.hit_multi_snoops            0                       # Number of snoops hitting in the snoop filter with multiple (>1) holders of the requested data.
system.membus.snoop_filter.hit_single_requests            0                       # Number of requests hitting in the snoop filter with a single holder of the requested data.
system.membus.snoop_filter.hit_single_snoops            0                       # Number of snoops hitting in the snoop filter with a single holder of the requested data.
system.membus.snoop_filter.tot_requests             0                       # Total number of requests made to the snoop filter.
system.membus.snoop_filter.tot_snoops               0                       # Total number of snoops made to the snoop filter.
system.membus.pwrStateResidencyTicks::UNDEFINED 362444972820                       # Cumulative time (in ticks) in various power states
system.membus.trans_dist::ReadReq             8009276                       # Transaction distribution
system.membus.trans_dist::ReadResp            8009276                       # Transaction distribution
system.membus.trans_dist::WriteReq               1279                       # Transaction distribution
system.membus.trans_dist::WriteResp              1279                       # Transaction distribution
system.membus.pkt_count_system.cpu.icache_port::system.mem_ctrl.port     15016358                       # Packet count per connected master and slave (bytes)
system.membus.pkt_count_system.cpu.icache_port::total     15016358                       # Packet count per connected master and slave (bytes)
system.membus.pkt_count_system.cpu.dcache_port::system.mem_ctrl.port      1004752                       # Packet count per connected master and slave (bytes)
system.membus.pkt_count_system.cpu.dcache_port::total      1004752                       # Packet count per connected master and slave (bytes)
system.membus.pkt_count::total               16021110                       # Packet count per connected master and slave (bytes)
system.membus.pkt_size_system.cpu.icache_port::system.mem_ctrl.port     60065432                       # Cumulative packet size per connected master and slave (bytes)
system.membus.pkt_size_system.cpu.icache_port::total     60065432                       # Cumulative packet size per connected master and slave (bytes)
system.membus.pkt_size_system.cpu.dcache_port::system.mem_ctrl.port      2016868                       # Cumulative packet size per connected master and slave (bytes)
system.membus.pkt_size_system.cpu.dcache_port::total      2016868                       # Cumulative packet size per connected master and slave (bytes)
system.membus.pkt_size::total                62082300                       # Cumulative packet size per connected master and slave (bytes)
system.membus.snoops                                0                       # Total snoops (count)
system.membus.snoopTraffic                          0                       # Total snoop traffic (bytes)
system.membus.snoop_fanout::samples           8010555                       # Request fanout histogram
system.membus.snoop_fanout::mean                    0                       # Request fanout histogram
system.membus.snoop_fanout::stdev                   0                       # Request fanout histogram
system.membus.snoop_fanout::underflows              0      0.00%      0.00% # Request fanout histogram
system.membus.snoop_fanout::0                 8010555    100.00%    100.00% # Request fanout histogram
system.membus.snoop_fanout::1                       0      0.00%    100.00% # Request fanout histogram
system.membus.snoop_fanout::overflows               0      0.00%    100.00% # Request fanout histogram
system.membus.snoop_fanout::min_value               0                       # Request fanout histogram
system.membus.snoop_fanout::max_value               0                       # Request fanout histogram
system.membus.snoop_fanout::total             8010555                       # Request fanout histogram
system.membus.reqLayer2.occupancy          2355479196                       # Layer occupancy (ticks)
system.membus.reqLayer2.utilization               0.6                       # Layer utilization (%)
system.membus.respLayer1.occupancy          368014904                       # Layer occupancy (ticks)
system.membus.respLayer1.utilization              0.1                       # Layer utilization (%)
system.membus.respLayer0.occupancy         4888548860                       # Layer occupancy (ticks)
system.membus.respLayer0.utilization              1.3                       # Layer utilization (%)
system.mem_ctrl.pwrStateResidencyTicks::UNDEFINED 362444972820                       # Cumulative time (in ticks) in various power states
system.mem_ctrl.bytes_read::.cpu.inst        60065432                       # Number of bytes read from this memory
system.mem_ctrl.bytes_read::.cpu.data         2007265                       # Number of bytes read from this memory
system.mem_ctrl.bytes_read::total            62072697                       # Number of bytes read from this memory
system.mem_ctrl.bytes_inst_read::.cpu.inst     60065432                       # Number of instructions bytes read from this memory
system.mem_ctrl.bytes_inst_read::total       60065432                       # Number of instructions bytes read from this memory
system.mem_ctrl.bytes_written::.cpu.data         9603                       # Number of bytes written to this memory
system.mem_ctrl.bytes_written::total             9603                       # Number of bytes written to this memory
system.mem_ctrl.num_reads::.cpu.inst          7508179                       # Number of read requests responded to by this memory
system.mem_ctrl.num_reads::.cpu.data           501097                       # Number of read requests responded to by this memory
system.mem_ctrl.num_reads::total              8009276                       # Number of read requests responded to by this memory
system.mem_ctrl.num_writes::.cpu.data            1279                       # Number of write requests responded to by this memory
system.mem_ctrl.num_writes::total                1279                       # Number of write requests responded to by this memory
system.mem_ctrl.bw_read::.cpu.inst          165722900                       # Total read bandwidth from this memory (bytes/s)
system.mem_ctrl.bw_read::.cpu.data            5538123                       # Total read bandwidth from this memory (bytes/s)
system.mem_ctrl.bw_read::total              171261023                       # Total read bandwidth from this memory (bytes/s)
system.mem_ctrl.bw_inst_read::.cpu.inst     165722900                       # Instruction read bandwidth from this memory (bytes/s)
system.mem_ctrl.bw_inst_read::total         165722900                       # Instruction read bandwidth from this memory (bytes/s)
system.mem_ctrl.bw_write::.cpu.data             26495                       # Write bandwidth from this memory (bytes/s)
system.mem_ctrl.bw_write::total                 26495                       # Write bandwidth from this memory (bytes/s)
system.mem_ctrl.bw_total::.cpu.inst         165722900                       # Total bandwidth to/from this memory (bytes/s)
system.mem_ctrl.bw_total::.cpu.data           5564618                       # Total bandwidth to/from this memory (bytes/s)
system.mem_ctrl.bw_total::total             171287519                       # Total bandwidth to/from this memory (bytes/s)
system.mem_ctrl.avgPriority_.cpu.inst::samples   7508179.00                       # Average QoS priority value for accepted requests
system.mem_ctrl.avgPriority_.cpu.data::samples    501161.00                       # Average QoS priority value for accepted requests
system.mem_ctrl.priorityMinLatency       0.000000018750                       # per QoS priority minimum request to response latency (s)
system.mem_ctrl.priorityMaxLatency       0.724294006398                       # per QoS priority maximum request to response latency (s)
system.mem_ctrl.numReadWriteTurnArounds            10                       # Number of turnarounds from READ to WRITE
system.mem_ctrl.numWriteReadTurnArounds            10                       # Number of turnarounds from WRITE to READ
system.mem_ctrl.numStayReadState             16112684                       # Number of times bus staying in READ state
system.mem_ctrl.numStayWriteState                 150                       # Number of times bus staying in WRITE state
system.mem_ctrl.readReqs                      8009276                       # Number of read requests accepted
system.mem_ctrl.writeReqs                        1279                       # Number of write requests accepted
system.mem_ctrl.readBursts                    8009276                       # Number of DRAM read bursts, including those serviced by the write queue
system.mem_ctrl.writeBursts                      1279                       # Number of DRAM write bursts, including those merged in the write queue
system.mem_ctrl.servicedByWrQ                     116                       # Number of DRAM read bursts serviced by the write queue
system.mem_ctrl.mergedWrBursts                   1099                       # Number of DRAM write bursts merged with an existing one
system.mem_ctrl.neitherReadNorWriteReqs             0                       # Number of requests that are neither read nor write
system.mem_ctrl.perBankRdBursts::0            7532561                       # Per bank write bursts
system.mem_ctrl.perBankRdBursts::1              31459                       # Per bank write bursts
system.mem_ctrl.perBankRdBursts::2              31397                       # Per bank write bursts
system.mem_ctrl.perBankRdBursts::3              31536                       # Per bank write bursts
system.mem_ctrl.perBankRdBursts::4              31374                       # Per bank write bursts
system.mem_ctrl.perBankRdBursts::5              31369                       # Per bank write bursts
system.mem_ctrl.perBankRdBursts::6              32605                       # Per bank write bursts
system.mem_ctrl.perBankRdBursts::7              31868                       # Per bank write bursts
system.mem_ctrl.perBankRdBursts::8              31274                       # Per bank write bursts
system.mem_ctrl.perBankRdBursts::9              31357                       # Per bank write bursts
system.mem_ctrl.perBankRdBursts::10             31635                       # Per bank write bursts
system.mem_ctrl.perBankRdBursts::11             31275                       # Per bank write bursts
system.mem_ctrl.perBankRdBursts::12             32915                       # Per bank write bursts
system.mem_ctrl.perBankRdBursts::13             31653                       # Per bank write bursts
system.mem_ctrl.perBankRdBursts::14             33170                       # Per bank write bursts
system.mem_ctrl.perBankRdBursts::15             31712                       # Per bank write bursts
system.mem_ctrl.perBankWrBursts::0                 37                       # Per bank write bursts
system.mem_ctrl.perBankWrBursts::1                  0                       # Per bank write bursts
system.mem_ctrl.perBankWrBursts::2                  0                       # Per bank write bursts
system.mem_ctrl.perBankWrBursts::3                  0                       # Per bank write bursts
system.mem_ctrl.perBankWrBursts::4                  0                       # Per bank write bursts
system.mem_ctrl.perBankWrBursts::5                  0                       # Per bank write bursts
system.mem_ctrl.perBankWrBursts::6                  0                       # Per bank write bursts
system.mem_ctrl.perBankWrBursts::7                  0                       # Per bank write bursts
system.mem_ctrl.perBankWrBursts::8                  0                       # Per bank write bursts
system.mem_ctrl.perBankWrBursts::9                  0                       # Per bank write bursts
system.mem_ctrl.perBankWrBursts::10                 0                       # Per bank write bursts
system.mem_ctrl.perBankWrBursts::11                 0                       # Per bank write bursts
system.mem_ctrl.perBankWrBursts::12                46                       # Per bank write bursts
system.mem_ctrl.perBankWrBursts::13                28                       # Per bank write bursts
system.mem_ctrl.perBankWrBursts::14                43                       # Per bank write bursts
system.mem_ctrl.perBankWrBursts::15                 6                       # Per bank write bursts
system.mem_ctrl.avgRdQLen                        1.00                       # Average read queue length when enqueuing
system.mem_ctrl.avgWrQLen                       28.00                       # Average write queue length when enqueuing
system.mem_ctrl.totQLat                   27978068942                       # Total ticks spent queuing
system.mem_ctrl.totBusLat                 40045800000                       # Total ticks spent in databus transfers
system.mem_ctrl.totMemAccLat             178149818942                       # Total ticks spent from burst creation until serviced by the DRAM
system.mem_ctrl.avgQLat                       3493.26                       # Average queueing delay per DRAM burst
system.mem_ctrl.avgBusLat                     5000.00                       # Average bus latency per DRAM burst
system.mem_ctrl.avgMemAccLat                 22243.26                       # Average memory access latency per DRAM burst
system.mem_ctrl.numRdRetry                          0                       # Number of times read queue was full causing retry
system.mem_ctrl.numWrRetry                          0                       # Number of times write queue was full causing retry
system.mem_ctrl.readRowHits                   7000117                       # Number of row buffer hits during reads
system.mem_ctrl.writeRowHits                      146                       # Number of row buffer hits during writes
system.mem_ctrl.readRowHitRate                  87.40                       # Row buffer hit rate for reads
system.mem_ctrl.writeRowHitRate                 81.11                       # Row buffer hit rate for writes
system.mem_ctrl.readPktSize::0                     87                       # Read request sizes (log2)
system.mem_ctrl.readPktSize::1                     13                       # Read request sizes (log2)
system.mem_ctrl.readPktSize::2                 500205                       # Read request sizes (log2)
system.mem_ctrl.readPktSize::3                7508971                       # Read request sizes (log2)
system.mem_ctrl.readPktSize::4                      0                       # Read request sizes (log2)
system.mem_ctrl.readPktSize::5                      0                       # Read request sizes (log2)
system.mem_ctrl.readPktSize::6                      0                       # Read request sizes (log2)
system.mem_ctrl.writePktSize::0                    21                       # Write request sizes (log2)
system.mem_ctrl.writePktSize::1                     3                       # Write request sizes (log2)
system.mem_ctrl.writePktSize::2                   115                       # Write request sizes (log2)
system.mem_ctrl.writePktSize::3                  1140                       # Write request sizes (log2)
system.mem_ctrl.writePktSize::4                     0                       # Write request sizes (log2)
system.mem_ctrl.writePktSize::5                     0                       # Write request sizes (log2)
system.mem_ctrl.writePktSize::6                     0                       # Write request sizes (log2)
system.mem_ctrl.rdQLenPdf::0                  8009157                       # What read queue length does an incoming req see
system.mem_ctrl.rdQLenPdf::1                        3                       # What read queue length does an incoming req see
system.mem_ctrl.rdQLenPdf::2                        0                       # What read queue length does an incoming req see
system.mem_ctrl.rdQLenPdf::3                        0                       # What read queue length does an incoming req see
system.mem_ctrl.rdQLenPdf::4                        0                       # What read queue length does an incoming req see
system.mem_ctrl.rdQLenPdf::5                        0                       # What read queue length does an incoming req see
system.mem_ctrl.rdQLenPdf::6                        0                       # What read queue length does an incoming req see
system.mem_ctrl.rdQLenPdf::7                        0                       # What read queue length does an incoming req see
system.mem_ctrl.rdQLenPdf::8                        0                       # What read queue length does an incoming req see
system.mem_ctrl.rdQLenPdf::9                        0                       # What read queue length does an incoming req see
system.mem_ctrl.rdQLenPdf::10                       0                       # What read queue length does an incoming req see
system.mem_ctrl.rdQLenPdf::11                       0                       # What read queue length does an incoming req see
system.mem_ctrl.rdQLenPdf::12                       0                       # What read queue length does an incoming req see
system.mem_ctrl.rdQLenPdf::13                       0                       # What read queue length does an incoming req see
system.mem_ctrl.rdQLenPdf::14                       0                       # What read queue length does an incoming req see
system.mem_ctrl.rdQLenPdf::15                       0                       # What read queue length does an incoming req see
system.mem_ctrl.rdQLenPdf::16                       0                       # What read queue length does an incoming req see
system.mem_ctrl.rdQLenPdf::17                       0                       # What read queue length does an incoming req see
system.mem_ctrl.rdQLenPdf::18                       0                       # What read queue length does an incoming req see
system.mem_ctrl.rdQLenPdf::19                       0                       # What read queue length does an incoming req see
system.mem_ctrl.rdQLenPdf::20                       0                       # What read queue length does an incoming req see
system.mem_ctrl.rdQLenPdf::21                       0                       # What read queue length does an incoming req see
system.mem_ctrl.rdQLenPdf::22                       0                       # What read queue length does an incoming req see
system.mem_ctrl.rdQLenPdf::23                       0                       # What read queue length does an incoming req see
system.mem_ctrl.rdQLenPdf::24                       0                       # What read queue length does an incoming req see
system.mem_ctrl.rdQLenPdf::25                       0                       # What read queue length does an incoming req see
system.mem_ctrl.rdQLenPdf::26                       0                       # What read queue length does an incoming req see
system.mem_ctrl.rdQLenPdf::27                       0                       # What read queue length does an incoming req see
system.mem_ctrl.rdQLenPdf::28                       0                       # What read queue length does an incoming req see
system.mem_ctrl.rdQLenPdf::29                       0                       # What read queue length does an incoming req see
system.mem_ctrl.rdQLenPdf::30                       0                       # What read queue length does an incoming req see
system.mem_ctrl.rdQLenPdf::31                       0                       # What read queue length does an incoming req see
system.mem_ctrl.wrQLenPdf::0                        1                       # What write queue length does an incoming req see
system.mem_ctrl.wrQLenPdf::1                        1                       # What write queue length does an incoming req see
system.mem_ctrl.wrQLenPdf::2                        1                       # What write queue length does an incoming req see
system.mem_ctrl.wrQLenPdf::3                        1                       # What write queue length does an incoming req see
system.mem_ctrl.wrQLenPdf::4                        1                       # What write queue length does an incoming req see
system.mem_ctrl.wrQLenPdf::5                        1                       # What write queue length does an incoming req see
system.mem_ctrl.wrQLenPdf::6                        1                       # What write queue length does an incoming req see
system.mem_ctrl.wrQLenPdf::7                        1                       # What write queue length does an incoming req see
system.mem_ctrl.wrQLenPdf::8                        1                       # What write queue length does an incoming req see
system.mem_ctrl.wrQLenPdf::9                        1                       # What write queue length does an incoming req see
system.mem_ctrl.wrQLenPdf::10                       1                       # What write queue length does an incoming req see
system.mem_ctrl.wrQLenPdf::11                       1                       # What write queue length does an incoming req see
system.mem_ctrl.wrQLenPdf::12                       1                       # What write queue length does an incoming req see
system.mem_ctrl.wrQLenPdf::13                       1                       # What write queue length does an incoming req see
system.mem_ctrl.wrQLenPdf::14                       1                       # What write queue length does an incoming req see
system.mem_ctrl.wrQLenPdf::15                       1                       # What write queue length does an incoming req see
system.mem_ctrl.wrQLenPdf::16                       1                       # What write queue length does an incoming req see
system.mem_ctrl.wrQLenPdf::17                      11                       # What write queue length does an incoming req see
system.mem_ctrl.wrQLenPdf::18                      11                       # What write queue length does an incoming req see
system.mem_ctrl.wrQLenPdf::19                      11                       # What write queue length does an incoming req see
system.mem_ctrl.wrQLenPdf::20                      10                       # What write queue length does an incoming req see
system.mem_ctrl.wrQLenPdf::21                      10                       # What write queue length does an incoming req see
system.mem_ctrl.wrQLenPdf::22                      10                       # What write queue length does an incoming req see
system.mem_ctrl.wrQLenPdf::23                      10                       # What write queue length does an incoming req see
system.mem_ctrl.wrQLenPdf::24                      10                       # What write queue length does an incoming req see
system.mem_ctrl.wrQLenPdf::25                      10                       # What write queue length does an incoming req see
system.mem_ctrl.wrQLenPdf::26                      10                       # What write queue length does an incoming req see
system.mem_ctrl.wrQLenPdf::27                      10                       # What write queue length does an incoming req see
system.mem_ctrl.wrQLenPdf::28                      10                       # What write queue length does an incoming req see
system.mem_ctrl.wrQLenPdf::29                      10                       # What write queue length does an incoming req see
system.mem_ctrl.wrQLenPdf::30                      10                       # What write queue length does an incoming req see
system.mem_ctrl.wrQLenPdf::31                      10                       # What write queue length does an incoming req see
system.mem_ctrl.wrQLenPdf::32                      10                       # What write queue length does an incoming req see
system.mem_ctrl.wrQLenPdf::33                       0                       # What write queue length does an incoming req see
system.mem_ctrl.wrQLenPdf::34                       0                       # What write queue length does an incoming req see
system.mem_ctrl.wrQLenPdf::35                       0                       # What write queue length does an incoming req see
system.mem_ctrl.wrQLenPdf::36                       0                       # What write queue length does an incoming req see
system.mem_ctrl.wrQLenPdf::37                       0                       # What write queue length does an incoming req see
system.mem_ctrl.wrQLenPdf::38                       0                       # What write queue length does an incoming req see
system.mem_ctrl.wrQLenPdf::39                       0                       # What write queue length does an incoming req see
system.mem_ctrl.wrQLenPdf::40                       0                       # What write queue length does an incoming req see
system.mem_ctrl.wrQLenPdf::41                       0                       # What write queue length does an incoming req see
system.mem_ctrl.wrQLenPdf::42                       0                       # What write queue length does an incoming req see
system.mem_ctrl.wrQLenPdf::43                       0                       # What write queue length does an incoming req see
system.mem_ctrl.wrQLenPdf::44                       0                       # What write queue length does an incoming req see
system.mem_ctrl.wrQLenPdf::45                       0                       # What write queue length does an incoming req see
system.mem_ctrl.wrQLenPdf::46                       0                       # What write queue length does an incoming req see
system.mem_ctrl.wrQLenPdf::47                       0                       # What write queue length does an incoming req see
system.mem_ctrl.wrQLenPdf::48                       0                       # What write queue length does an incoming req see
system.mem_ctrl.wrQLenPdf::49                       0                       # What write queue length does an incoming req see
system.mem_ctrl.wrQLenPdf::50                       0                       # What write queue length does an incoming req see
system.mem_ctrl.wrQLenPdf::51                       0                       # What write queue length does an incoming req see
system.mem_ctrl.wrQLenPdf::52                       0                       # What write queue length does an incoming req see
system.mem_ctrl.wrQLenPdf::53                       0                       # What write queue length does an incoming req see
system.mem_ctrl.wrQLenPdf::54                       0                       # What write queue length does an incoming req see
system.mem_ctrl.wrQLenPdf::55                       0                       # What write queue length does an incoming req see
system.mem_ctrl.wrQLenPdf::56                       0                       # What write queue length does an incoming req see
system.mem_ctrl.wrQLenPdf::57                       0                       # What write queue length does an incoming req see
system.mem_ctrl.wrQLenPdf::58                       0                       # What write queue length does an incoming req see
system.mem_ctrl.wrQLenPdf::59                       0                       # What write queue length does an incoming req see
system.mem_ctrl.wrQLenPdf::60                       0                       # What write queue length does an incoming req see
system.mem_ctrl.wrQLenPdf::61                       0                       # What write queue length does an incoming req see
system.mem_ctrl.wrQLenPdf::62                       0                       # What write queue length does an incoming req see
system.mem_ctrl.wrQLenPdf::63                       0                       # What write queue length does an incoming req see
system.mem_ctrl.bytesPerActivate::samples      1009052                       # Bytes accessed per row activation
system.mem_ctrl.bytesPerActivate::mean     507.995481                       # Bytes accessed per row activation
system.mem_ctrl.bytesPerActivate::gmean    239.145976                       # Bytes accessed per row activation
system.mem_ctrl.bytesPerActivate::stdev    469.254145                       # Bytes accessed per row activation
system.mem_ctrl.bytesPerActivate::0-127        506685     50.21%     50.21% # Bytes accessed per row activation
system.mem_ctrl.bytesPerActivate::128-255        20258      2.01%     52.22% # Bytes accessed per row activation
system.mem_ctrl.bytesPerActivate::256-383         5793      0.57%     52.80% # Bytes accessed per row activation
system.mem_ctrl.bytesPerActivate::384-511         6090      0.60%     53.40% # Bytes accessed per row activation
system.mem_ctrl.bytesPerActivate::512-639         6468      0.64%     54.04% # Bytes accessed per row activation
system.mem_ctrl.bytesPerActivate::640-767         7208      0.71%     54.75% # Bytes accessed per row activation
system.mem_ctrl.bytesPerActivate::768-895         8564      0.85%     55.60% # Bytes accessed per row activation
system.mem_ctrl.bytesPerActivate::896-1023         9505      0.94%     56.55% # Bytes accessed per row activation
system.mem_ctrl.bytesPerActivate::1024-1151       438481     43.45%    100.00% # Bytes accessed per row activation
system.mem_ctrl.bytesPerActivate::total       1009052                       # Bytes accessed per row activation
system.mem_ctrl.rdPerTurnAround::samples           10                       # Reads before turning the bus around for writes
system.mem_ctrl.rdPerTurnAround::mean    800906.200000                       # Reads before turning the bus around for writes
system.mem_ctrl.rdPerTurnAround::gmean    2029.353152                       # Reads before turning the bus around for writes
system.mem_ctrl.rdPerTurnAround::stdev   2529813.673533                       # Reads before turning the bus around for writes
system.mem_ctrl.rdPerTurnAround::0-262143            9     90.00%     90.00% # Reads before turning the bus around for writes
system.mem_ctrl.rdPerTurnAround::7.86432e+06-8.12646e+06            1     10.00%    100.00% # Reads before turning the bus around for writes
system.mem_ctrl.rdPerTurnAround::total             10                       # Reads before turning the bus around for writes
system.mem_ctrl.wrPerTurnAround::samples           10                       # Writes before turning the bus around for reads
system.mem_ctrl.wrPerTurnAround::mean              16                       # Writes before turning the bus around for reads
system.mem_ctrl.wrPerTurnAround::gmean      16.000000                       # Writes before turning the bus around for reads
system.mem_ctrl.wrPerTurnAround::16                10    100.00%    100.00% # Writes before turning the bus around for reads
system.mem_ctrl.wrPerTurnAround::total             10                       # Writes before turning the bus around for reads
system.mem_ctrl.bytesReadDRAM               512586240                       # Total number of bytes read from DRAM
system.mem_ctrl.bytesReadWrQ                     7424                       # Total number of bytes read from write queue
system.mem_ctrl.bytesWritten                    10240                       # Total number of bytes written to DRAM
system.mem_ctrl.bytesReadSys                 62072697                       # Total read bytes from the system interface side
system.mem_ctrl.bytesWrittenSys                  9603                       # Total written bytes from the system interface side
system.mem_ctrl.avgRdBW                       1414.25                       # Average DRAM read bandwidth in MiByte/s
system.mem_ctrl.avgWrBW                          0.03                       # Average achieved write bandwidth in MiByte/s
system.mem_ctrl.avgRdBWSys                     171.26                       # Average system read bandwidth in MiByte/s
system.mem_ctrl.avgWrBWSys                       0.03                       # Average system write bandwidth in MiByte/s
system.mem_ctrl.peakBW                       12800.00                       # Theoretical peak bandwidth in MiByte/s
system.mem_ctrl.busUtil                         11.05                       # Data bus utilization in percentage
system.mem_ctrl.busUtilRead                     11.05                       # Data bus utilization in percentage for reads
system.mem_ctrl.busUtilWrite                     0.00                       # Data bus utilization in percentage for writes
system.mem_ctrl.totGap                   362444861688                       # Total gap between requests
system.mem_ctrl.avgGap                       45245.91                       # Average gap between requests
system.mem_ctrl.masterReadBytes::.cpu.inst     60065432                       # Per-master bytes read from memory
system.mem_ctrl.masterReadBytes::.cpu.data      2006405                       # Per-master bytes read from memory
system.mem_ctrl.masterWriteBytes::.cpu.data         1216                       # Per-master bytes write to memory
system.mem_ctrl.masterReadRate::.cpu.inst 165722900.038208335638                       # Per-master bytes read from memory rate (Bytes/sec)
system.mem_ctrl.masterReadRate::.cpu.data 5535750.666892088950                       # Per-master bytes read from memory rate (Bytes/sec)
system.mem_ctrl.masterWriteRate::.cpu.data 3354.992043451237                       # Per-master bytes write to memory rate (Bytes/sec)
system.mem_ctrl.masterReadAccesses::.cpu.inst      7508179                       # Per-master read serviced memory accesses
system.mem_ctrl.masterReadAccesses::.cpu.data       501097                       # Per-master read serviced memory accesses
system.mem_ctrl.masterWriteAccesses::.cpu.data         1279                       # Per-master write serviced memory accesses
system.mem_ctrl.masterReadTotalLat::.cpu.inst 159248791346                       # Per-master read total memory access latency
system.mem_ctrl.masterReadTotalLat::.cpu.data  18901027596                       # Per-master read total memory access latency
system.mem_ctrl.masterWriteTotalLat::.cpu.data 5801067504594                       # Per-master write total memory access latency
system.mem_ctrl.masterReadAvgLat::.cpu.inst     21210.04                       # Per-master read average memory access latency
system.mem_ctrl.masterReadAvgLat::.cpu.data     37719.30                       # Per-master read average memory access latency
system.mem_ctrl.masterWriteAvgLat::.cpu.data 4535627446.91                       # Per-master write average memory access latency
system.mem_ctrl.pageHitRate                     87.40                       # Row buffer hit rate, read and write combined
system.mem_ctrl.rank1.actEnergy            1771077000                       # Energy for activate commands per rank (pJ)
system.mem_ctrl.rank1.preEnergy             941338365                       # Energy for precharge commands per rank (pJ)
system.mem_ctrl.rank1.readEnergy           1820635740                       # Energy for read commands per rank (pJ)
system.mem_ctrl.rank1.writeEnergy              642060                       # Energy for write commands per rank (pJ)
system.mem_ctrl.rank1.refreshEnergy      28610877360.000004                       # Energy for refresh commands per rank (pJ)
system.mem_ctrl.rank1.actBackEnergy      142851495630                       # Energy for active background per rank (pJ)
system.mem_ctrl.rank1.preBackEnergy       18882873600                       # Energy for precharge background per rank (pJ)
system.mem_ctrl.rank1.actPowerDownEnergy            0                       # Energy for active power-down per rank (pJ)
system.mem_ctrl.rank1.prePowerDownEnergy            0                       # Energy for precharge power-down per rank (pJ)
system.mem_ctrl.rank1.selfRefreshEnergy             0                       # Energy for self refresh per rank (pJ)
system.mem_ctrl.rank1.totalEnergy        194878939755                       # Total energy per rank (pJ)
system.mem_ctrl.rank1.averagePower         537.678694                       # Core power per rank (mW)
system.mem_ctrl.rank1.totalIdleTime                 0                       # Total Idle time Per DRAM Rank
system.mem_ctrl.rank1.memoryStateTime::IDLE  47770028004                       # Time in different power states
system.mem_ctrl.rank1.memoryStateTime::REF  12102740000                       # Time in different power states
system.mem_ctrl.rank1.memoryStateTime::SREF            0                       # Time in different power states
system.mem_ctrl.rank1.memoryStateTime::PRE_PDN            0                       # Time in different power states
system.mem_ctrl.rank1.memoryStateTime::ACT 302572204816                       # Time in different power states
system.mem_ctrl.rank1.memoryStateTime::ACT_PDN            0                       # Time in different power states
system.mem_ctrl.rank0.actEnergy            5433589980                       # Energy for activate commands per rank (pJ)
system.mem_ctrl.rank0.preEnergy            2888013975                       # Energy for precharge commands per rank (pJ)
system.mem_ctrl.rank0.readEnergy          55364766660                       # Energy for read commands per rank (pJ)
system.mem_ctrl.rank0.writeEnergy              193140                       # Energy for write commands per rank (pJ)
system.mem_ctrl.rank0.refreshEnergy      28610877360.000004                       # Energy for refresh commands per rank (pJ)
system.mem_ctrl.rank0.actBackEnergy      163700538390                       # Energy for active background per rank (pJ)
system.mem_ctrl.rank0.preBackEnergy        1325784960                       # Energy for precharge background per rank (pJ)
system.mem_ctrl.rank0.actPowerDownEnergy            0                       # Energy for active power-down per rank (pJ)
system.mem_ctrl.rank0.prePowerDownEnergy            0                       # Energy for precharge power-down per rank (pJ)
system.mem_ctrl.rank0.selfRefreshEnergy             0                       # Energy for self refresh per rank (pJ)
system.mem_ctrl.rank0.totalEnergy        257323764465                       # Total energy per rank (pJ)
system.mem_ctrl.rank0.averagePower         709.966433                       # Core power per rank (mW)
system.mem_ctrl.rank0.totalIdleTime                 0                       # Total Idle time Per DRAM Rank
system.mem_ctrl.rank0.memoryStateTime::IDLE   1311763914                       # Time in different power states
system.mem_ctrl.rank0.memoryStateTime::REF  12102740000                       # Time in different power states
system.mem_ctrl.rank0.memoryStateTime::SREF            0                       # Time in different power states
system.mem_ctrl.rank0.memoryStateTime::PRE_PDN            0                       # Time in different power states
system.mem_ctrl.rank0.memoryStateTime::ACT 349030468906                       # Time in different power states
system.mem_ctrl.rank0.memoryStateTime::ACT_PDN            0                       # Time in different power states
system.clk_domain.clock                           294                       # Clock period in ticks
system.clk_domain.voltage_domain.voltage            1                       # Voltage in Volts
system.cpu.numPwrStateTransitions                   1                       # Number of power state transitions
system.cpu.pwrStateResidencyTicks::ON    362444972820                       # Cumulative time (in ticks) in various power states
system.cpu.dtb.walker.pwrStateResidencyTicks::UNDEFINED 362444972820                       # Cumulative time (in ticks) in various power states
system.cpu.interrupts.clk_domain.clock           4704                       # Clock period in ticks
system.cpu.itb.walker.pwrStateResidencyTicks::UNDEFINED 362444972820                       # Cumulative time (in ticks) in various power states

---------- End Simulation Statistics   ----------
