
---------- Begin Simulation Statistics ----------
final_tick                               1033840624446                       # Number of ticks from beginning of simulation (restored from checkpoints and never reset)
host_inst_rate                                 107249                       # Simulator instruction rate (inst/s)
host_mem_usage                                 670692                       # Number of bytes of host memory used
host_op_rate                                   183833                       # Simulator op (including micro ops) rate (op/s)
host_seconds                                   108.02                       # Real time elapsed on the host
host_tick_rate                             9570983952                       # Simulator tick rate (ticks/s)
sim_freq                                 1000000000000                       # Frequency of simulated ticks
sim_insts                                    11584837                       # Number of instructions simulated
sim_ops                                      19857351                       # Number of ops (including micro ops) simulated
sim_seconds                                  1.033841                       # Number of seconds simulated
sim_ticks                                1033840624446                       # Number of ticks simulated
system.cpu.Branches                            296396                       # Number of branches fetched
system.cpu.committedInsts                    11584837                       # Number of instructions committed
system.cpu.committedOps                      19857351                       # Number of ops (including micro ops) committed
system.cpu.dtb.rdAccesses                     6102979                       # TLB accesses on read requests
system.cpu.dtb.rdMisses                            59                       # TLB misses on read requests
system.cpu.dtb.wrAccesses                     2102602                       # TLB accesses on write requests
system.cpu.dtb.wrMisses                             7                       # TLB misses on write requests
system.cpu.idle_fraction                     0.000000                       # Percentage of idle cycles
system.cpu.itb.rdAccesses                           0                       # TLB accesses on read requests
system.cpu.itb.rdMisses                             0                       # TLB misses on read requests
system.cpu.itb.wrAccesses                    16312232                       # TLB accesses on write requests
system.cpu.itb.wrMisses                            36                       # TLB misses on write requests
system.cpu.not_idle_fraction                 1.000000                       # Percentage of non-idle cycles
system.cpu.numCycles                       3516464709                       # number of cpu cycles simulated
system.cpu.numWorkItemsCompleted                    0                       # number of work items this cpu completed
system.cpu.numWorkItemsStarted                      0                       # number of work items this cpu started
system.cpu.num_busy_cycles               3516464708.996599                       # Number of busy cycles
system.cpu.num_cc_register_reads              1515015                       # number of times the CC registers were read
system.cpu.num_cc_register_writes             2306450                       # number of times the CC registers were written
system.cpu.num_conditional_control_insts       296044                       # number of instructions that are conditional controls
system.cpu.num_fp_alu_accesses               14944159                       # Number of float alu accesses
system.cpu.num_fp_insts                      14944159                       # number of float instructions
system.cpu.num_fp_register_reads             14683835                       # number of times the floating registers were read
system.cpu.num_fp_register_writes            12846540                       # number of times the floating registers were written
system.cpu.num_func_calls                         244                       # number of times a function call or return occured
system.cpu.num_idle_cycles                   0.003401                       # Number of idle cycles
system.cpu.num_int_alu_accesses              11434188                       # Number of integer alu accesses
system.cpu.num_int_insts                     11434188                       # number of integer instructions
system.cpu.num_int_register_reads            28415226                       # number of times the integer registers were read
system.cpu.num_int_register_writes            4578798                       # number of times the integer registers were written
system.cpu.num_load_insts                     5840829                       # Number of load instructions
system.cpu.num_mem_refs                       7943430                       # number of memory refs
system.cpu.num_store_insts                    2102601                       # Number of store instructions
system.cpu.num_vec_alu_accesses                     0                       # Number of vector alu accesses
system.cpu.num_vec_insts                            0                       # number of vector instructions
system.cpu.num_vec_register_reads                   0                       # number of times the vector registers were read
system.cpu.num_vec_register_writes                  0                       # number of times the vector registers were written
system.cpu.op_class::No_OpClass                 32869      0.17%      0.17% # Class of executed instruction
system.cpu.op_class::IntAlu                   3491466     17.58%     17.75% # Class of executed instruction
system.cpu.op_class::IntMult                        4      0.00%     17.75% # Class of executed instruction
system.cpu.op_class::IntDiv                        14      0.00%     17.75% # Class of executed instruction
system.cpu.op_class::FloatAdd                 4194314     21.12%     38.87% # Class of executed instruction
system.cpu.op_class::FloatCmp                       0      0.00%     38.87% # Class of executed instruction
system.cpu.op_class::FloatCvt                       0      0.00%     38.87% # Class of executed instruction
system.cpu.op_class::FloatMult                      0      0.00%     38.87% # Class of executed instruction
system.cpu.op_class::FloatMultAcc                   0      0.00%     38.87% # Class of executed instruction
system.cpu.op_class::FloatDiv                       0      0.00%     38.87% # Class of executed instruction
system.cpu.op_class::FloatMisc                      0      0.00%     38.87% # Class of executed instruction
system.cpu.op_class::FloatSqrt                      0      0.00%     38.87% # Class of executed instruction
system.cpu.op_class::SimdAdd                      374      0.00%     38.87% # Class of executed instruction
system.cpu.op_class::SimdAddAcc                     0      0.00%     38.87% # Class of executed instruction
system.cpu.op_class::SimdAlu                       68      0.00%     38.87% # Class of executed instruction
system.cpu.op_class::SimdCmp                        0      0.00%     38.87% # Class of executed instruction
system.cpu.op_class::SimdCvt                      108      0.00%     38.87% # Class of executed instruction
system.cpu.op_class::SimdMisc                     214      0.00%     38.87% # Class of executed instruction
system.cpu.op_class::SimdMult                       0      0.00%     38.87% # Class of executed instruction
system.cpu.op_class::SimdMultAcc                    0      0.00%     38.87% # Class of executed instruction
system.cpu.op_class::SimdShift                    186      0.00%     38.88% # Class of executed instruction
system.cpu.op_class::SimdShiftAcc                   0      0.00%     38.88% # Class of executed instruction
system.cpu.op_class::SimdDiv                        0      0.00%     38.88% # Class of executed instruction
system.cpu.op_class::SimdSqrt                       0      0.00%     38.88% # Class of executed instruction
system.cpu.op_class::SimdFloatAdd             2097152     10.56%     49.44% # Class of executed instruction
system.cpu.op_class::SimdFloatAlu                   0      0.00%     49.44% # Class of executed instruction
system.cpu.op_class::SimdFloatCmp                   0      0.00%     49.44% # Class of executed instruction
system.cpu.op_class::SimdFloatCvt                   0      0.00%     49.44% # Class of executed instruction
system.cpu.op_class::SimdFloatDiv                   0      0.00%     49.44% # Class of executed instruction
system.cpu.op_class::SimdFloatMisc                  0      0.00%     49.44% # Class of executed instruction
system.cpu.op_class::SimdFloatMult            2097152     10.56%     60.00% # Class of executed instruction
system.cpu.op_class::SimdFloatMultAcc               0      0.00%     60.00% # Class of executed instruction
system.cpu.op_class::SimdFloatSqrt                  0      0.00%     60.00% # Class of executed instruction
system.cpu.op_class::SimdReduceAdd                  0      0.00%     60.00% # Class of executed instruction
system.cpu.op_class::SimdReduceAlu                  0      0.00%     60.00% # Class of executed instruction
system.cpu.op_class::SimdReduceCmp                  0      0.00%     60.00% # Class of executed instruction
system.cpu.op_class::SimdFloatReduceAdd             0      0.00%     60.00% # Class of executed instruction
system.cpu.op_class::SimdFloatReduceCmp             0      0.00%     60.00% # Class of executed instruction
system.cpu.op_class::SimdAes                        0      0.00%     60.00% # Class of executed instruction
system.cpu.op_class::SimdAesMix                     0      0.00%     60.00% # Class of executed instruction
system.cpu.op_class::SimdSha1Hash                   0      0.00%     60.00% # Class of executed instruction
system.cpu.op_class::SimdSha1Hash2                  0      0.00%     60.00% # Class of executed instruction
system.cpu.op_class::SimdSha256Hash                 0      0.00%     60.00% # Class of executed instruction
system.cpu.op_class::SimdSha256Hash2                0      0.00%     60.00% # Class of executed instruction
system.cpu.op_class::SimdShaSigma2                  0      0.00%     60.00% # Class of executed instruction
system.cpu.op_class::SimdShaSigma3                  0      0.00%     60.00% # Class of executed instruction
system.cpu.op_class::SimdPredAlu                    0      0.00%     60.00% # Class of executed instruction
system.cpu.op_class::MemRead                  1384321      6.97%     66.97% # Class of executed instruction
system.cpu.op_class::MemWrite                    5030      0.03%     66.99% # Class of executed instruction
system.cpu.op_class::FloatMemRead             4456508     22.44%     89.44% # Class of executed instruction
system.cpu.op_class::FloatMemWrite            2097571     10.56%    100.00% # Class of executed instruction
system.cpu.op_class::IprAccess                      0      0.00%    100.00% # Class of executed instruction
system.cpu.op_class::InstPrefetch                   0      0.00%    100.00% # Class of executed instruction
system.cpu.op_class::total                   19857351                       # Class of executed instruction
system.cpu.workload.numSyscalls                     9                       # Number of system calls
system.membus.snoop_filter.hit_multi_requests            0                       # Number of requests hitting in the snoop filter with multiple (>1) holders of the requested data.
system.membus.snoop_filter.hit_multi_snoops            0                       # Number of snoops hitting in the snoop filter with multiple (>1) holders of the requested data.
system.membus.snoop_filter.hit_single_requests            0                       # Number of requests hitting in the snoop filter with a single holder of the requested data.
system.membus.snoop_filter.hit_single_snoops            0                       # Number of snoops hitting in the snoop filter with a single holder of the requested data.
system.membus.snoop_filter.tot_requests             0                       # Total number of requests made to the snoop filter.
system.membus.snoop_filter.tot_snoops               0                       # Total number of snoops made to the snoop filter.
system.membus.pwrStateResidencyTicks::UNDEFINED 1033840624446                       # Cumulative time (in ticks) in various power states
system.membus.trans_dist::ReadReq            22415211                       # Transaction distribution
system.membus.trans_dist::ReadResp           22415211                       # Transaction distribution
system.membus.trans_dist::WriteReq            2102602                       # Transaction distribution
system.membus.trans_dist::WriteResp           2102602                       # Transaction distribution
system.membus.pkt_count_system.cpu.icache_port::system.mem_ctrl.port     32624464                       # Packet count per connected master and slave (bytes)
system.membus.pkt_count_system.cpu.icache_port::total     32624464                       # Packet count per connected master and slave (bytes)
system.membus.pkt_count_system.cpu.dcache_port::system.mem_ctrl.port     16411162                       # Packet count per connected master and slave (bytes)
system.membus.pkt_count_system.cpu.dcache_port::total     16411162                       # Packet count per connected master and slave (bytes)
system.membus.pkt_count::total               49035626                       # Packet count per connected master and slave (bytes)
system.membus.pkt_size_system.cpu.icache_port::system.mem_ctrl.port    130497856                       # Cumulative packet size per connected master and slave (bytes)
system.membus.pkt_size_system.cpu.icache_port::total    130497856                       # Cumulative packet size per connected master and slave (bytes)
system.membus.pkt_size_system.cpu.dcache_port::system.mem_ctrl.port     46768130                       # Cumulative packet size per connected master and slave (bytes)
system.membus.pkt_size_system.cpu.dcache_port::total     46768130                       # Cumulative packet size per connected master and slave (bytes)
system.membus.pkt_size::total               177265986                       # Cumulative packet size per connected master and slave (bytes)
system.membus.snoops                                0                       # Total snoops (count)
system.membus.snoopTraffic                          0                       # Total snoop traffic (bytes)
system.membus.snoop_fanout::samples          24517813                       # Request fanout histogram
system.membus.snoop_fanout::mean                    0                       # Request fanout histogram
system.membus.snoop_fanout::stdev                   0                       # Request fanout histogram
system.membus.snoop_fanout::underflows              0      0.00%      0.00% # Request fanout histogram
system.membus.snoop_fanout::0                24517813    100.00%    100.00% # Request fanout histogram
system.membus.snoop_fanout::1                       0      0.00%    100.00% # Request fanout histogram
system.membus.snoop_fanout::overflows               0      0.00%    100.00% # Request fanout histogram
system.membus.snoop_fanout::min_value               0                       # Request fanout histogram
system.membus.snoop_fanout::max_value               0                       # Request fanout histogram
system.membus.snoop_fanout::total            24517813                       # Request fanout histogram
system.membus.reqLayer2.occupancy          7826402010                       # Layer occupancy (ticks)
system.membus.reqLayer2.utilization               0.8                       # Layer utilization (%)
system.membus.respLayer1.occupancy         5312264030                       # Layer occupancy (ticks)
system.membus.respLayer1.utilization              0.5                       # Layer utilization (%)
system.membus.respLayer0.occupancy        10645107552                       # Layer occupancy (ticks)
system.membus.respLayer0.utilization              1.0                       # Layer utilization (%)
system.mem_ctrl.pwrStateResidencyTicks::UNDEFINED 1033840624446                       # Cumulative time (in ticks) in various power states
system.mem_ctrl.bytes_read::.cpu.inst       130497856                       # Number of bytes read from this memory
system.mem_ctrl.bytes_read::.cpu.data        38336551                       # Number of bytes read from this memory
system.mem_ctrl.bytes_read::total           168834407                       # Number of bytes read from this memory
system.mem_ctrl.bytes_inst_read::.cpu.inst    130497856                       # Number of instructions bytes read from this memory
system.mem_ctrl.bytes_inst_read::total      130497856                       # Number of instructions bytes read from this memory
system.mem_ctrl.bytes_written::.cpu.data      8431579                       # Number of bytes written to this memory
system.mem_ctrl.bytes_written::total          8431579                       # Number of bytes written to this memory
system.mem_ctrl.num_reads::.cpu.inst         16312232                       # Number of read requests responded to by this memory
system.mem_ctrl.num_reads::.cpu.data          6102979                       # Number of read requests responded to by this memory
system.mem_ctrl.num_reads::total             22415211                       # Number of read requests responded to by this memory
system.mem_ctrl.num_writes::.cpu.data         2102602                       # Number of write requests responded to by this memory
system.mem_ctrl.num_writes::total             2102602                       # Number of write requests responded to by this memory
system.mem_ctrl.bw_read::.cpu.inst          126226280                       # Total read bandwidth from this memory (bytes/s)
system.mem_ctrl.bw_read::.cpu.data           37081684                       # Total read bandwidth from this memory (bytes/s)
system.mem_ctrl.bw_read::total              163307964                       # Total read bandwidth from this memory (bytes/s)
system.mem_ctrl.bw_inst_read::.cpu.inst     126226280                       # Instruction read bandwidth from this memory (bytes/s)
system.mem_ctrl.bw_inst_read::total         126226280                       # Instruction read bandwidth from this memory (bytes/s)
system.mem_ctrl.bw_write::.cpu.data           8155589                       # Write bandwidth from this memory (bytes/s)
system.mem_ctrl.bw_write::total               8155589                       # Write bandwidth from this memory (bytes/s)
system.mem_ctrl.bw_total::.cpu.inst         126226280                       # Total bandwidth to/from this memory (bytes/s)
system.mem_ctrl.bw_total::.cpu.data          45237272                       # Total bandwidth to/from this memory (bytes/s)
system.mem_ctrl.bw_total::total             171463552                       # Total bandwidth to/from this memory (bytes/s)
system.mem_ctrl.avgPriority_.cpu.inst::samples  16312232.00                       # Average QoS priority value for accepted requests
system.mem_ctrl.avgPriority_.cpu.data::samples   6085220.00                       # Average QoS priority value for accepted requests
system.mem_ctrl.priorityMinLatency       0.000000018750                       # per QoS priority minimum request to response latency (s)
system.mem_ctrl.priorityMaxLatency       0.012446628114                       # per QoS priority maximum request to response latency (s)
system.mem_ctrl.numReadWriteTurnArounds          2162                       # Number of turnarounds from READ to WRITE
system.mem_ctrl.numWriteReadTurnArounds          2162                       # Number of turnarounds from WRITE to READ
system.mem_ctrl.numStayReadState             47073642                       # Number of times bus staying in READ state
system.mem_ctrl.numStayWriteState               32444                       # Number of times bus staying in WRITE state
system.mem_ctrl.readReqs                     22415211                       # Number of read requests accepted
system.mem_ctrl.writeReqs                     2102602                       # Number of write requests accepted
system.mem_ctrl.readBursts                   22415211                       # Number of DRAM read bursts, including those serviced by the write queue
system.mem_ctrl.writeBursts                   2102602                       # Number of DRAM write bursts, including those merged in the write queue
system.mem_ctrl.servicedByWrQ                   52379                       # Number of DRAM read bursts serviced by the write queue
system.mem_ctrl.mergedWrBursts                2067982                       # Number of DRAM write bursts merged with an existing one
system.mem_ctrl.neitherReadNorWriteReqs             0                       # Number of requests that are neither read nor write
system.mem_ctrl.perBankRdBursts::0           16616553                       # Per bank write bursts
system.mem_ctrl.perBankRdBursts::1             311476                       # Per bank write bursts
system.mem_ctrl.perBankRdBursts::2             311503                       # Per bank write bursts
system.mem_ctrl.perBankRdBursts::3             311634                       # Per bank write bursts
system.mem_ctrl.perBankRdBursts::4             311307                       # Per bank write bursts
system.mem_ctrl.perBankRdBursts::5             311463                       # Per bank write bursts
system.mem_ctrl.perBankRdBursts::6            1614913                       # Per bank write bursts
system.mem_ctrl.perBankRdBursts::7             279199                       # Per bank write bursts
system.mem_ctrl.perBankRdBursts::8             278622                       # Per bank write bursts
system.mem_ctrl.perBankRdBursts::9             278654                       # Per bank write bursts
system.mem_ctrl.perBankRdBursts::10            278846                       # Per bank write bursts
system.mem_ctrl.perBankRdBursts::11            278589                       # Per bank write bursts
system.mem_ctrl.perBankRdBursts::12            280251                       # Per bank write bursts
system.mem_ctrl.perBankRdBursts::13            278941                       # Per bank write bursts
system.mem_ctrl.perBankRdBursts::14            309156                       # Per bank write bursts
system.mem_ctrl.perBankRdBursts::15            311725                       # Per bank write bursts
system.mem_ctrl.perBankWrBursts::0                  0                       # Per bank write bursts
system.mem_ctrl.perBankWrBursts::1                  0                       # Per bank write bursts
system.mem_ctrl.perBankWrBursts::2                  0                       # Per bank write bursts
system.mem_ctrl.perBankWrBursts::3                  0                       # Per bank write bursts
system.mem_ctrl.perBankWrBursts::4                  0                       # Per bank write bursts
system.mem_ctrl.perBankWrBursts::5                  0                       # Per bank write bursts
system.mem_ctrl.perBankWrBursts::6               4337                       # Per bank write bursts
system.mem_ctrl.perBankWrBursts::7               4242                       # Per bank write bursts
system.mem_ctrl.perBankWrBursts::8               4299                       # Per bank write bursts
system.mem_ctrl.perBankWrBursts::9               4254                       # Per bank write bursts
system.mem_ctrl.perBankWrBursts::10              4258                       # Per bank write bursts
system.mem_ctrl.perBankWrBursts::11              4241                       # Per bank write bursts
system.mem_ctrl.perBankWrBursts::12              4266                       # Per bank write bursts
system.mem_ctrl.perBankWrBursts::13              4216                       # Per bank write bursts
system.mem_ctrl.perBankWrBursts::14               479                       # Per bank write bursts
system.mem_ctrl.perBankWrBursts::15                 0                       # Per bank write bursts
system.mem_ctrl.avgRdQLen                        1.01                       # Average read queue length when enqueuing
system.mem_ctrl.avgWrQLen                       25.29                       # Average write queue length when enqueuing
system.mem_ctrl.totQLat                   82946068178                       # Total ticks spent queuing
system.mem_ctrl.totBusLat                111814160000                       # Total ticks spent in databus transfers
system.mem_ctrl.totMemAccLat             502249168178                       # Total ticks spent from burst creation until serviced by the DRAM
system.mem_ctrl.avgQLat                       3709.10                       # Average queueing delay per DRAM burst
system.mem_ctrl.avgBusLat                     5000.00                       # Average bus latency per DRAM burst
system.mem_ctrl.avgMemAccLat                 22459.10                       # Average memory access latency per DRAM burst
system.mem_ctrl.numRdRetry                          0                       # Number of times read queue was full causing retry
system.mem_ctrl.numWrRetry                          0                       # Number of times write queue was full causing retry
system.mem_ctrl.readRowHits                  19884450                       # Number of row buffer hits during reads
system.mem_ctrl.writeRowHits                    30769                       # Number of row buffer hits during writes
system.mem_ctrl.readRowHitRate                  88.92                       # Row buffer hit rate for reads
system.mem_ctrl.writeRowHitRate                 88.88                       # Row buffer hit rate for writes
system.mem_ctrl.readPktSize::0                     87                       # Read request sizes (log2)
system.mem_ctrl.readPktSize::1                     12                       # Read request sizes (log2)
system.mem_ctrl.readPktSize::2                2621647                       # Read request sizes (log2)
system.mem_ctrl.readPktSize::3               19793465                       # Read request sizes (log2)
system.mem_ctrl.readPktSize::4                      0                       # Read request sizes (log2)
system.mem_ctrl.readPktSize::5                      0                       # Read request sizes (log2)
system.mem_ctrl.readPktSize::6                      0                       # Read request sizes (log2)
system.mem_ctrl.writePktSize::0                    21                       # Write request sizes (log2)
system.mem_ctrl.writePktSize::1                     3                       # Write request sizes (log2)
system.mem_ctrl.writePktSize::2               2097267                       # Write request sizes (log2)
system.mem_ctrl.writePktSize::3                  5311                       # Write request sizes (log2)
system.mem_ctrl.writePktSize::4                     0                       # Write request sizes (log2)
system.mem_ctrl.writePktSize::5                     0                       # Write request sizes (log2)
system.mem_ctrl.writePktSize::6                     0                       # Write request sizes (log2)
system.mem_ctrl.rdQLenPdf::0                 22100682                       # What read queue length does an incoming req see
system.mem_ctrl.rdQLenPdf::1                   262150                       # What read queue length does an incoming req see
system.mem_ctrl.rdQLenPdf::2                        0                       # What read queue length does an incoming req see
system.mem_ctrl.rdQLenPdf::3                        0                       # What read queue length does an incoming req see
system.mem_ctrl.rdQLenPdf::4                        0                       # What read queue length does an incoming req see
system.mem_ctrl.rdQLenPdf::5                        0                       # What read queue length does an incoming req see
system.mem_ctrl.rdQLenPdf::6                        0                       # What read queue length does an incoming req see
system.mem_ctrl.rdQLenPdf::7                        0                       # What read queue length does an incoming req see
system.mem_ctrl.rdQLenPdf::8                        0                       # What read queue length does an incoming req see
system.mem_ctrl.rdQLenPdf::9                        0                       # What read queue length does an incoming req see
system.mem_ctrl.rdQLenPdf::10                       0                       # What read queue length does an incoming req see
system.mem_ctrl.rdQLenPdf::11                       0                       # What read queue length does an incoming req see
system.mem_ctrl.rdQLenPdf::12                       0                       # What read queue length does an incoming req see
system.mem_ctrl.rdQLenPdf::13                       0                       # What read queue length does an incoming req see
system.mem_ctrl.rdQLenPdf::14                       0                       # What read queue length does an incoming req see
system.mem_ctrl.rdQLenPdf::15                       0                       # What read queue length does an incoming req see
system.mem_ctrl.rdQLenPdf::16                       0                       # What read queue length does an incoming req see
system.mem_ctrl.rdQLenPdf::17                       0                       # What read queue length does an incoming req see
system.mem_ctrl.rdQLenPdf::18                       0                       # What read queue length does an incoming req see
system.mem_ctrl.rdQLenPdf::19                       0                       # What read queue length does an incoming req see
system.mem_ctrl.rdQLenPdf::20                       0                       # What read queue length does an incoming req see
system.mem_ctrl.rdQLenPdf::21                       0                       # What read queue length does an incoming req see
system.mem_ctrl.rdQLenPdf::22                       0                       # What read queue length does an incoming req see
system.mem_ctrl.rdQLenPdf::23                       0                       # What read queue length does an incoming req see
system.mem_ctrl.rdQLenPdf::24                       0                       # What read queue length does an incoming req see
system.mem_ctrl.rdQLenPdf::25                       0                       # What read queue length does an incoming req see
system.mem_ctrl.rdQLenPdf::26                       0                       # What read queue length does an incoming req see
system.mem_ctrl.rdQLenPdf::27                       0                       # What read queue length does an incoming req see
system.mem_ctrl.rdQLenPdf::28                       0                       # What read queue length does an incoming req see
system.mem_ctrl.rdQLenPdf::29                       0                       # What read queue length does an incoming req see
system.mem_ctrl.rdQLenPdf::30                       0                       # What read queue length does an incoming req see
system.mem_ctrl.rdQLenPdf::31                       0                       # What read queue length does an incoming req see
system.mem_ctrl.wrQLenPdf::0                        1                       # What write queue length does an incoming req see
system.mem_ctrl.wrQLenPdf::1                        1                       # What write queue length does an incoming req see
system.mem_ctrl.wrQLenPdf::2                        1                       # What write queue length does an incoming req see
system.mem_ctrl.wrQLenPdf::3                        1                       # What write queue length does an incoming req see
system.mem_ctrl.wrQLenPdf::4                        1                       # What write queue length does an incoming req see
system.mem_ctrl.wrQLenPdf::5                        1                       # What write queue length does an incoming req see
system.mem_ctrl.wrQLenPdf::6                        1                       # What write queue length does an incoming req see
system.mem_ctrl.wrQLenPdf::7                        1                       # What write queue length does an incoming req see
system.mem_ctrl.wrQLenPdf::8                        1                       # What write queue length does an incoming req see
system.mem_ctrl.wrQLenPdf::9                        1                       # What write queue length does an incoming req see
system.mem_ctrl.wrQLenPdf::10                       1                       # What write queue length does an incoming req see
system.mem_ctrl.wrQLenPdf::11                       1                       # What write queue length does an incoming req see
system.mem_ctrl.wrQLenPdf::12                       1                       # What write queue length does an incoming req see
system.mem_ctrl.wrQLenPdf::13                       1                       # What write queue length does an incoming req see
system.mem_ctrl.wrQLenPdf::14                       1                       # What write queue length does an incoming req see
system.mem_ctrl.wrQLenPdf::15                       1                       # What write queue length does an incoming req see
system.mem_ctrl.wrQLenPdf::16                       1                       # What write queue length does an incoming req see
system.mem_ctrl.wrQLenPdf::17                    2163                       # What write queue length does an incoming req see
system.mem_ctrl.wrQLenPdf::18                    2163                       # What write queue length does an incoming req see
system.mem_ctrl.wrQLenPdf::19                    2163                       # What write queue length does an incoming req see
system.mem_ctrl.wrQLenPdf::20                    2163                       # What write queue length does an incoming req see
system.mem_ctrl.wrQLenPdf::21                    2163                       # What write queue length does an incoming req see
system.mem_ctrl.wrQLenPdf::22                    2163                       # What write queue length does an incoming req see
system.mem_ctrl.wrQLenPdf::23                    2163                       # What write queue length does an incoming req see
system.mem_ctrl.wrQLenPdf::24                    2163                       # What write queue length does an incoming req see
system.mem_ctrl.wrQLenPdf::25                    2163                       # What write queue length does an incoming req see
system.mem_ctrl.wrQLenPdf::26                    2163                       # What write queue length does an incoming req see
system.mem_ctrl.wrQLenPdf::27                    2163                       # What write queue length does an incoming req see
system.mem_ctrl.wrQLenPdf::28                    2162                       # What write queue length does an incoming req see
system.mem_ctrl.wrQLenPdf::29                    2162                       # What write queue length does an incoming req see
system.mem_ctrl.wrQLenPdf::30                    2162                       # What write queue length does an incoming req see
system.mem_ctrl.wrQLenPdf::31                    2162                       # What write queue length does an incoming req see
system.mem_ctrl.wrQLenPdf::32                    2162                       # What write queue length does an incoming req see
system.mem_ctrl.wrQLenPdf::33                       0                       # What write queue length does an incoming req see
system.mem_ctrl.wrQLenPdf::34                       0                       # What write queue length does an incoming req see
system.mem_ctrl.wrQLenPdf::35                       0                       # What write queue length does an incoming req see
system.mem_ctrl.wrQLenPdf::36                       0                       # What write queue length does an incoming req see
system.mem_ctrl.wrQLenPdf::37                       0                       # What write queue length does an incoming req see
system.mem_ctrl.wrQLenPdf::38                       0                       # What write queue length does an incoming req see
system.mem_ctrl.wrQLenPdf::39                       0                       # What write queue length does an incoming req see
system.mem_ctrl.wrQLenPdf::40                       0                       # What write queue length does an incoming req see
system.mem_ctrl.wrQLenPdf::41                       0                       # What write queue length does an incoming req see
system.mem_ctrl.wrQLenPdf::42                       0                       # What write queue length does an incoming req see
system.mem_ctrl.wrQLenPdf::43                       0                       # What write queue length does an incoming req see
system.mem_ctrl.wrQLenPdf::44                       0                       # What write queue length does an incoming req see
system.mem_ctrl.wrQLenPdf::45                       0                       # What write queue length does an incoming req see
system.mem_ctrl.wrQLenPdf::46                       0                       # What write queue length does an incoming req see
system.mem_ctrl.wrQLenPdf::47                       0                       # What write queue length does an incoming req see
system.mem_ctrl.wrQLenPdf::48                       0                       # What write queue length does an incoming req see
system.mem_ctrl.wrQLenPdf::49                       0                       # What write queue length does an incoming req see
system.mem_ctrl.wrQLenPdf::50                       0                       # What write queue length does an incoming req see
system.mem_ctrl.wrQLenPdf::51                       0                       # What write queue length does an incoming req see
system.mem_ctrl.wrQLenPdf::52                       0                       # What write queue length does an incoming req see
system.mem_ctrl.wrQLenPdf::53                       0                       # What write queue length does an incoming req see
system.mem_ctrl.wrQLenPdf::54                       0                       # What write queue length does an incoming req see
system.mem_ctrl.wrQLenPdf::55                       0                       # What write queue length does an incoming req see
system.mem_ctrl.wrQLenPdf::56                       0                       # What write queue length does an incoming req see
system.mem_ctrl.wrQLenPdf::57                       0                       # What write queue length does an incoming req see
system.mem_ctrl.wrQLenPdf::58                       0                       # What write queue length does an incoming req see
system.mem_ctrl.wrQLenPdf::59                       0                       # What write queue length does an incoming req see
system.mem_ctrl.wrQLenPdf::60                       0                       # What write queue length does an incoming req see
system.mem_ctrl.wrQLenPdf::61                       0                       # What write queue length does an incoming req see
system.mem_ctrl.wrQLenPdf::62                       0                       # What write queue length does an incoming req see
system.mem_ctrl.wrQLenPdf::63                       0                       # What write queue length does an incoming req see
system.mem_ctrl.bytesPerActivate::samples      2482199                       # Bytes accessed per row activation
system.mem_ctrl.bytesPerActivate::mean     577.484954                       # Bytes accessed per row activation
system.mem_ctrl.bytesPerActivate::gmean    352.511808                       # Bytes accessed per row activation
system.mem_ctrl.bytesPerActivate::stdev    417.028037                       # Bytes accessed per row activation
system.mem_ctrl.bytesPerActivate::0-127        639851     25.78%     25.78% # Bytes accessed per row activation
system.mem_ctrl.bytesPerActivate::128-255       237453      9.57%     35.34% # Bytes accessed per row activation
system.mem_ctrl.bytesPerActivate::256-383        79347      3.20%     38.54% # Bytes accessed per row activation
system.mem_ctrl.bytesPerActivate::384-511       197743      7.97%     46.51% # Bytes accessed per row activation
system.mem_ctrl.bytesPerActivate::512-639        51252      2.06%     48.57% # Bytes accessed per row activation
system.mem_ctrl.bytesPerActivate::640-767       187985      7.57%     56.15% # Bytes accessed per row activation
system.mem_ctrl.bytesPerActivate::768-895        61906      2.49%     58.64% # Bytes accessed per row activation
system.mem_ctrl.bytesPerActivate::896-1023        40611      1.64%     60.28% # Bytes accessed per row activation
system.mem_ctrl.bytesPerActivate::1024-1151       986051     39.72%    100.00% # Bytes accessed per row activation
system.mem_ctrl.bytesPerActivate::total       2482199                       # Bytes accessed per row activation
system.mem_ctrl.rdPerTurnAround::samples         2162                       # Reads before turning the bus around for writes
system.mem_ctrl.rdPerTurnAround::mean    10343.350139                       # Reads before turning the bus around for writes
system.mem_ctrl.rdPerTurnAround::gmean   10233.692825                       # Reads before turning the bus around for writes
system.mem_ctrl.rdPerTurnAround::stdev    1068.676248                       # Reads before turning the bus around for writes
system.mem_ctrl.rdPerTurnAround::0-1023             7      0.32%      0.32% # Reads before turning the bus around for writes
system.mem_ctrl.rdPerTurnAround::1024-2047            2      0.09%      0.42% # Reads before turning the bus around for writes
system.mem_ctrl.rdPerTurnAround::2048-3071            1      0.05%      0.46% # Reads before turning the bus around for writes
system.mem_ctrl.rdPerTurnAround::6144-7167            1      0.05%      0.51% # Reads before turning the bus around for writes
system.mem_ctrl.rdPerTurnAround::7168-8191           37      1.71%      2.22% # Reads before turning the bus around for writes
system.mem_ctrl.rdPerTurnAround::8192-9215          168      7.77%      9.99% # Reads before turning the bus around for writes
system.mem_ctrl.rdPerTurnAround::9216-10239          665     30.76%     40.75% # Reads before turning the bus around for writes
system.mem_ctrl.rdPerTurnAround::10240-11263         1249     57.77%     98.52% # Reads before turning the bus around for writes
system.mem_ctrl.rdPerTurnAround::11264-12287            5      0.23%     98.75% # Reads before turning the bus around for writes
system.mem_ctrl.rdPerTurnAround::12288-13311            7      0.32%     99.07% # Reads before turning the bus around for writes
system.mem_ctrl.rdPerTurnAround::13312-14335            3      0.14%     99.21% # Reads before turning the bus around for writes
system.mem_ctrl.rdPerTurnAround::14336-15359            8      0.37%     99.58% # Reads before turning the bus around for writes
system.mem_ctrl.rdPerTurnAround::16384-17407            8      0.37%     99.95% # Reads before turning the bus around for writes
system.mem_ctrl.rdPerTurnAround::17408-18431            1      0.05%    100.00% # Reads before turning the bus around for writes
system.mem_ctrl.rdPerTurnAround::total           2162                       # Reads before turning the bus around for writes
system.mem_ctrl.wrPerTurnAround::samples         2162                       # Writes before turning the bus around for reads
system.mem_ctrl.wrPerTurnAround::mean              16                       # Writes before turning the bus around for reads
system.mem_ctrl.wrPerTurnAround::gmean      16.000000                       # Writes before turning the bus around for reads
system.mem_ctrl.wrPerTurnAround::16              2162    100.00%    100.00% # Writes before turning the bus around for reads
system.mem_ctrl.wrPerTurnAround::total           2162                       # Writes before turning the bus around for reads
system.mem_ctrl.bytesReadDRAM              1431221248                       # Total number of bytes read from DRAM
system.mem_ctrl.bytesReadWrQ                  3352256                       # Total number of bytes read from write queue
system.mem_ctrl.bytesWritten                  2213888                       # Total number of bytes written to DRAM
system.mem_ctrl.bytesReadSys                168834407                       # Total read bytes from the system interface side
system.mem_ctrl.bytesWrittenSys               8431579                       # Total written bytes from the system interface side
system.mem_ctrl.avgRdBW                       1384.37                       # Average DRAM read bandwidth in MiByte/s
system.mem_ctrl.avgWrBW                          2.14                       # Average achieved write bandwidth in MiByte/s
system.mem_ctrl.avgRdBWSys                     163.31                       # Average system read bandwidth in MiByte/s
system.mem_ctrl.avgWrBWSys                       8.16                       # Average system write bandwidth in MiByte/s
system.mem_ctrl.peakBW                       12800.00                       # Theoretical peak bandwidth in MiByte/s
system.mem_ctrl.busUtil                         10.83                       # Data bus utilization in percentage
system.mem_ctrl.busUtilRead                     10.82                       # Data bus utilization in percentage for reads
system.mem_ctrl.busUtilWrite                     0.02                       # Data bus utilization in percentage for writes
system.mem_ctrl.totGap                   1033840513314                       # Total gap between requests
system.mem_ctrl.avgGap                       42166.91                       # Average gap between requests
system.mem_ctrl.masterReadBytes::.cpu.inst    130497856                       # Per-master bytes read from memory
system.mem_ctrl.masterReadBytes::.cpu.data     37917583                       # Per-master bytes read from memory
system.mem_ctrl.masterWriteBytes::.cpu.data       142196                       # Per-master bytes write to memory
system.mem_ctrl.masterReadRate::.cpu.inst 126226279.867778822780                       # Per-master bytes read from memory rate (Bytes/sec)
system.mem_ctrl.masterReadRate::.cpu.data 36676429.715962022543                       # Per-master bytes read from memory rate (Bytes/sec)
system.mem_ctrl.masterWriteRate::.cpu.data 137541.509433524159                       # Per-master bytes write to memory rate (Bytes/sec)
system.mem_ctrl.masterReadAccesses::.cpu.inst     16312232                       # Per-master read serviced memory accesses
system.mem_ctrl.masterReadAccesses::.cpu.data      6102979                       # Per-master read serviced memory accesses
system.mem_ctrl.masterWriteAccesses::.cpu.data      2102602                       # Per-master write serviced memory accesses
system.mem_ctrl.masterReadTotalLat::.cpu.inst 352432555250                       # Per-master read total memory access latency
system.mem_ctrl.masterReadTotalLat::.cpu.data 149816612928                       # Per-master read total memory access latency
system.mem_ctrl.masterWriteTotalLat::.cpu.data 25610525165910                       # Per-master write total memory access latency
system.mem_ctrl.masterReadAvgLat::.cpu.inst     21605.42                       # Per-master read average memory access latency
system.mem_ctrl.masterReadAvgLat::.cpu.data     24548.11                       # Per-master read average memory access latency
system.mem_ctrl.masterWriteAvgLat::.cpu.data  12180396.08                       # Per-master write average memory access latency
system.mem_ctrl.pageHitRate                     88.92                       # Row buffer hit rate, read and write combined
system.mem_ctrl.rank1.actEnergy            1923658800                       # Energy for activate commands per rank (pJ)
system.mem_ctrl.rank1.preEnergy            1022437515                       # Energy for precharge commands per rank (pJ)
system.mem_ctrl.rank1.readEnergy          16384757760                       # Energy for read commands per rank (pJ)
system.mem_ctrl.rank1.writeEnergy           135787860                       # Energy for write commands per rank (pJ)
system.mem_ctrl.rank1.refreshEnergy      81610055280.000015                       # Energy for refresh commands per rank (pJ)
system.mem_ctrl.rank1.actBackEnergy      422775155430                       # Energy for active background per rank (pJ)
system.mem_ctrl.rank1.preBackEnergy       40973616480                       # Energy for precharge background per rank (pJ)
system.mem_ctrl.rank1.actPowerDownEnergy            0                       # Energy for active power-down per rank (pJ)
system.mem_ctrl.rank1.prePowerDownEnergy            0                       # Energy for precharge power-down per rank (pJ)
system.mem_ctrl.rank1.selfRefreshEnergy             0                       # Energy for self refresh per rank (pJ)
system.mem_ctrl.rank1.totalEnergy        564825469125                       # Total energy per rank (pJ)
system.mem_ctrl.rank1.averagePower         546.337081                       # Core power per rank (mW)
system.mem_ctrl.rank1.totalIdleTime                 0                       # Total Idle time Per DRAM Rank
system.mem_ctrl.rank1.memoryStateTime::IDLE 101933013356                       # Time in different power states
system.mem_ctrl.rank1.memoryStateTime::REF  34522020000                       # Time in different power states
system.mem_ctrl.rank1.memoryStateTime::SREF            0                       # Time in different power states
system.mem_ctrl.rank1.memoryStateTime::PRE_PDN            0                       # Time in different power states
system.mem_ctrl.rank1.memoryStateTime::ACT 897385591090                       # Time in different power states
system.mem_ctrl.rank1.memoryStateTime::ACT_PDN            0                       # Time in different power states
system.mem_ctrl.rank0.actEnergy           15799284900                       # Energy for activate commands per rank (pJ)
system.mem_ctrl.rank0.preEnergy            8397507690                       # Energy for precharge commands per rank (pJ)
system.mem_ctrl.rank0.readEnergy         143285862720                       # Energy for read commands per rank (pJ)
system.mem_ctrl.rank0.writeEnergy            44782380                       # Energy for write commands per rank (pJ)
system.mem_ctrl.rank0.refreshEnergy      81610055280.000015                       # Energy for refresh commands per rank (pJ)
system.mem_ctrl.rank0.actBackEnergy      469123975260                       # Energy for active background per rank (pJ)
system.mem_ctrl.rank0.preBackEnergy        1943031360                       # Energy for precharge background per rank (pJ)
system.mem_ctrl.rank0.actPowerDownEnergy            0                       # Energy for active power-down per rank (pJ)
system.mem_ctrl.rank0.prePowerDownEnergy            0                       # Energy for precharge power-down per rank (pJ)
system.mem_ctrl.rank0.selfRefreshEnergy             0                       # Energy for self refresh per rank (pJ)
system.mem_ctrl.rank0.totalEnergy        720204499590                       # Total energy per rank (pJ)
system.mem_ctrl.rank0.averagePower         696.630102                       # Core power per rank (mW)
system.mem_ctrl.rank0.totalIdleTime                 0                       # Total Idle time Per DRAM Rank
system.mem_ctrl.rank0.memoryStateTime::IDLE    826337430                       # Time in different power states
system.mem_ctrl.rank0.memoryStateTime::REF  34522020000                       # Time in different power states
system.mem_ctrl.rank0.memoryStateTime::SREF            0                       # Time in different power states
system.mem_ctrl.rank0.memoryStateTime::PRE_PDN            0                       # Time in different power states
system.mem_ctrl.rank0.memoryStateTime::ACT 998492267016                       # Time in different power states
system.mem_ctrl.rank0.memoryStateTime::ACT_PDN            0                       # Time in different power states
system.clk_domain.clock                           294                       # Clock period in ticks
system.clk_domain.voltage_domain.voltage            1                       # Voltage in Volts
system.cpu.numPwrStateTransitions                   1                       # Number of power state transitions
system.cpu.pwrStateResidencyTicks::ON    1033840624446                       # Cumulative time (in ticks) in various power states
system.cpu.dtb.walker.pwrStateResidencyTicks::UNDEFINED 1033840624446                       # Cumulative time (in ticks) in various power states
system.cpu.interrupts.clk_domain.clock           4704                       # Clock period in ticks
system.cpu.itb.walker.pwrStateResidencyTicks::UNDEFINED 1033840624446                       # Cumulative time (in ticks) in various power states

---------- End Simulation Statistics   ----------
